REMARK  Name = ../refined-set-2016/2xef/2xef_pocket.pdb
REMARK  421 active torsions:
REMARK  status: ('A' for Active; 'I' for Inactive)
REMARK    1  A    between atoms: _1  and  _3
REMARK    2  A    between atoms: _3  and  _4
REMARK    3  A    between atoms: _7  and  _9
REMARK    4  A    between atoms: _9  and  _10
REMARK    5  A    between atoms: _9  and  _12
REMARK    6  A    between atoms: _12  and  _13
REMARK    7  A    between atoms: _19  and  _21
REMARK    8  A    between atoms: _21  and  _22
REMARK    9  A    between atoms: _21  and  _24
REMARK   10  A    between atoms: _24  and  _25
REMARK   11  A    between atoms: _30  and  _31
REMARK   12  A    between atoms: _33  and  _35
REMARK   13  A    between atoms: _35  and  _36
REMARK   14  A    between atoms: _38  and  _40
REMARK   15  A    between atoms: _40  and  _41
REMARK   16  A    between atoms: _40  and  _43
REMARK   17  A    between atoms: _43  and  _44
REMARK   18  A    between atoms: _44  and  _45
REMARK   19  A    between atoms: _45  and  _46
REMARK   20  A    between atoms: _46  and  _47
REMARK   21  A    between atoms: _51  and  _53
REMARK   22  A    between atoms: _53  and  _54
REMARK   23  A    between atoms: _53  and  _56
REMARK   24  A    between atoms: _59  and  _61
REMARK   25  A    between atoms: _61  and  _62
REMARK   26  A    between atoms: _61  and  _64
REMARK   27  A    between atoms: _64  and  _65
REMARK   28  A    between atoms: _71  and  _73
REMARK   29  A    between atoms: _73  and  _74
REMARK   30  A    between atoms: _73  and  _76
REMARK   31  A    between atoms: _76  and  _77
REMARK   32  A    between atoms: _77  and  _78
REMARK   33  A    between atoms: _78  and  _79
REMARK   34  A    between atoms: _88  and  _90
REMARK   35  A    between atoms: _90  and  _91
REMARK   36  A    between atoms: _93  and  _95
REMARK   37  A    between atoms: _95  and  _96
REMARK   38  A    between atoms: _95  and  _98
REMARK   39  A    between atoms: _98  and  _99
REMARK   40  A    between atoms: _99  and  _100
REMARK   41  A    between atoms: _100  and  _101
REMARK   42  A    between atoms: _101  and  _102
REMARK   43  A    between atoms: _106  and  _108
REMARK   44  A    between atoms: _108  and  _109
REMARK   45  A    between atoms: _108  and  _111
REMARK   46  A    between atoms: _111  and  _112
REMARK   47  A    between atoms: _117  and  _118
REMARK   48  A    between atoms: _120  and  _122
REMARK   49  A    between atoms: _122  and  _123
REMARK   50  A    between atoms: _122  and  _125
REMARK   51  A    between atoms: _125  and  _126
REMARK   52  A    between atoms: _126  and  _127
REMARK   53  A    between atoms: _132  and  _134
REMARK   54  A    between atoms: _134  and  _135
REMARK   55  A    between atoms: _134  and  _137
REMARK   56  A    between atoms: _137  and  _138
REMARK   57  A    between atoms: _138  and  _139
REMARK   58  A    between atoms: _139  and  _140
REMARK   59  A    between atoms: _149  and  _151
REMARK   60  A    between atoms: _151  and  _152
REMARK   61  A    between atoms: _154  and  _156
REMARK   62  A    between atoms: _156  and  _157
REMARK   63  A    between atoms: _156  and  _159
REMARK   64  A    between atoms: _159  and  _160
REMARK   65  A    between atoms: _165  and  _167
REMARK   66  A    between atoms: _167  and  _168
REMARK   67  A    between atoms: _167  and  _170
REMARK   68  A    between atoms: _170  and  _171
REMARK   69  A    between atoms: _174  and  _176
REMARK   70  A    between atoms: _176  and  _177
REMARK   71  A    between atoms: _176  and  _179
REMARK   72  A    between atoms: _179  and  _180
REMARK   73  A    between atoms: _183  and  _185
REMARK   74  A    between atoms: _185  and  _186
REMARK   75  A    between atoms: _185  and  _188
REMARK   76  A    between atoms: _188  and  _189
REMARK   77  A    between atoms: _194  and  _196
REMARK   78  A    between atoms: _196  and  _197
REMARK   79  A    between atoms: _196  and  _199
REMARK   80  A    between atoms: _199  and  _200
REMARK   81  A    between atoms: _203  and  _205
REMARK   82  A    between atoms: _205  and  _206
REMARK   83  A    between atoms: _205  and  _208
REMARK   84  A    between atoms: _208  and  _209
REMARK   85  A    between atoms: _214  and  _216
REMARK   86  A    between atoms: _216  and  _217
REMARK   87  A    between atoms: _219  and  _221
REMARK   88  A    between atoms: _221  and  _222
REMARK   89  A    between atoms: _224  and  _226
REMARK   90  A    between atoms: _226  and  _227
REMARK   91  A    between atoms: _226  and  _229
REMARK   92  A    between atoms: _229  and  _230
REMARK   93  A    between atoms: _234  and  ZN_1038
REMARK   94  A    between atoms: _235  and  _237
REMARK   95  A    between atoms: _237  and  _238
REMARK   96  A    between atoms: _237  and  _240
REMARK   97  A    between atoms: _240  and  _241
REMARK   98  A    between atoms: _244  and  _246
REMARK   99  A    between atoms: _246  and  _247
REMARK  100  A    between atoms: _246  and  _249
REMARK  101  A    between atoms: _249  and  _250
REMARK  102  A    between atoms: _260  and  _262
REMARK  103  A    between atoms: _262  and  _263
REMARK  104  A    between atoms: _262  and  _265
REMARK  105  A    between atoms: _265  and  _266
REMARK  106  A    between atoms: _269  and  _271
REMARK  107  A    between atoms: _271  and  _272
REMARK  108  A    between atoms: _271  and  _274
REMARK  109  A    between atoms: _274  and  _275
REMARK  110  A    between atoms: _279  and  _280
REMARK  111  A    between atoms: _285  and  _287
REMARK  112  A    between atoms: _287  and  _288
REMARK  113  A    between atoms: _291  and  _293
REMARK  114  A    between atoms: _293  and  _294
REMARK  115  A    between atoms: _293  and  _296
REMARK  116  A    between atoms: _296  and  _297
REMARK  117  A    between atoms: _297  and  _298
REMARK  118  A    between atoms: _301  and  _303
REMARK  119  A    between atoms: _303  and  _304
REMARK  120  A    between atoms: _303  and  _306
REMARK  121  A    between atoms: _306  and  _307
REMARK  122  A    between atoms: _307  and  _308
REMARK  123  A    between atoms: _308  and  _310
REMARK  124  A    between atoms: _310  and  ZN_1037
REMARK  125  A    between atoms: _311  and  _313
REMARK  126  A    between atoms: _313  and  _314
REMARK  127  A    between atoms: _313  and  _316
REMARK  128  A    between atoms: _316  and  _317
REMARK  129  A    between atoms: _323  and  _325
REMARK  130  A    between atoms: _325  and  _326
REMARK  131  A    between atoms: _328  and  _330
REMARK  132  A    between atoms: _330  and  _331
REMARK  133  A    between atoms: _330  and  _333
REMARK  134  A    between atoms: _333  and  _334
REMARK  135  A    between atoms: _337  and  _339
REMARK  136  A    between atoms: _339  and  _340
REMARK  137  A    between atoms: _339  and  _342
REMARK  138  A    between atoms: _342  and  _343
REMARK  139  A    between atoms: _346  and  _348
REMARK  140  A    between atoms: _348  and  _349
REMARK  141  A    between atoms: _348  and  _351
REMARK  142  A    between atoms: _351  and  _352
REMARK  143  A    between atoms: _357  and  _359
REMARK  144  A    between atoms: _359  and  _360
REMARK  145  A    between atoms: _359  and  _362
REMARK  146  A    between atoms: _362  and  _363
REMARK  147  A    between atoms: _363  and  _365
REMARK  148  A    between atoms: _365  and  ZN_1038
REMARK  149  A    between atoms: _366  and  _368
REMARK  150  A    between atoms: _368  and  _369
REMARK  151  A    between atoms: _368  and  _371
REMARK  152  A    between atoms: _371  and  _372
REMARK  153  A    between atoms: _374  and  _376
REMARK  154  A    between atoms: _376  and  _377
REMARK  155  A    between atoms: _376  and  _379
REMARK  156  A    between atoms: _379  and  _380
REMARK  157  A    between atoms: _382  and  _384
REMARK  158  A    between atoms: _384  and  _385
REMARK  159  A    between atoms: _384  and  _387
REMARK  160  A    between atoms: _387  and  _388
REMARK  161  A    between atoms: _391  and  _393
REMARK  162  A    between atoms: _393  and  _394
REMARK  163  A    between atoms: _393  and  _396
REMARK  164  A    between atoms: _396  and  _397
REMARK  165  A    between atoms: _397  and  _398
REMARK  166  A    between atoms: _401  and  _403
REMARK  167  A    between atoms: _403  and  _404
REMARK  168  A    between atoms: _403  and  _406
REMARK  169  A    between atoms: _406  and  _407
REMARK  170  A    between atoms: _412  and  _413
REMARK  171  A    between atoms: _415  and  _417
REMARK  172  A    between atoms: _417  and  _418
REMARK  173  A    between atoms: _417  and  _420
REMARK  174  A    between atoms: _420  and  _421
REMARK  175  A    between atoms: _424  and  _426
REMARK  176  A    between atoms: _426  and  _427
REMARK  177  A    between atoms: _426  and  _429
REMARK  178  A    between atoms: _429  and  _430
REMARK  179  A    between atoms: _433  and  _435
REMARK  180  A    between atoms: _435  and  _436
REMARK  181  A    between atoms: _435  and  _438
REMARK  182  A    between atoms: _438  and  _439
REMARK  183  A    between atoms: _439  and  _440
REMARK  184  A    between atoms: _440  and  _441
REMARK  185  A    between atoms: _450  and  _452
REMARK  186  A    between atoms: _452  and  _453
REMARK  187  A    between atoms: _452  and  _455
REMARK  188  A    between atoms: _458  and  _460
REMARK  189  A    between atoms: _460  and  _461
REMARK  190  A    between atoms: _460  and  _463
REMARK  191  A    between atoms: _463  and  _464
REMARK  192  A    between atoms: _467  and  _469
REMARK  193  A    between atoms: _469  and  _470
REMARK  194  A    between atoms: _469  and  _472
REMARK  195  A    between atoms: _474  and  _476
REMARK  196  A    between atoms: _476  and  _477
REMARK  197  A    between atoms: _476  and  _479
REMARK  198  A    between atoms: _479  and  _480
REMARK  199  A    between atoms: _490  and  _492
REMARK  200  A    between atoms: _492  and  _493
REMARK  201  A    between atoms: _492  and  _495
REMARK  202  A    between atoms: _495  and  _496
REMARK  203  A    between atoms: _496  and  _497
REMARK  204  A    between atoms: _497  and  _498
REMARK  205  A    between atoms: _498  and  _499
REMARK  206  A    between atoms: _503  and  _505
REMARK  207  A    between atoms: _505  and  _506
REMARK  208  A    between atoms: _505  and  _508
REMARK  209  A    between atoms: _508  and  _509
REMARK  210  A    between atoms: _512  and  _513
REMARK  211  A    between atoms: _519  and  _520
REMARK  212  A    between atoms: _525  and  _527
REMARK  213  A    between atoms: _527  and  _528
REMARK  214  A    between atoms: _527  and  _530
REMARK  215  A    between atoms: _530  and  _531
REMARK  216  A    between atoms: _531  and  _532
REMARK  217  A    between atoms: _535  and  _537
REMARK  218  A    between atoms: _537  and  _538
REMARK  219  A    between atoms: _537  and  _540
REMARK  220  A    between atoms: _540  and  _541
REMARK  221  A    between atoms: _541  and  _542
REMARK  222  A    between atoms: _542  and  _543
REMARK  223  A    between atoms: _552  and  _554
REMARK  224  A    between atoms: _554  and  _555
REMARK  225  A    between atoms: _554  and  _557
REMARK  226  A    between atoms: _557  and  _558
REMARK  227  A    between atoms: _561  and  _563
REMARK  228  A    between atoms: _563  and  _564
REMARK  229  A    between atoms: _563  and  _566
REMARK  230  A    between atoms: _566  and  _567
REMARK  231  A    between atoms: _569  and  _571
REMARK  232  A    between atoms: _571  and  _572
REMARK  233  A    between atoms: _571  and  _574
REMARK  234  A    between atoms: _574  and  _575
REMARK  235  A    between atoms: _575  and  _576
REMARK  236  A    between atoms: _576  and  _577
REMARK  237  A    between atoms: _577  and  _578
REMARK  238  A    between atoms: _582  and  _584
REMARK  239  A    between atoms: _584  and  _585
REMARK  240  A    between atoms: _584  and  _587
REMARK  241  A    between atoms: _587  and  _588
REMARK  242  A    between atoms: _591  and  _593
REMARK  243  A    between atoms: _593  and  _594
REMARK  244  A    between atoms: _596  and  _598
REMARK  245  A    between atoms: _598  and  _599
REMARK  246  A    between atoms: _598  and  _601
REMARK  247  A    between atoms: _601  and  _602
REMARK  248  A    between atoms: _604  and  _606
REMARK  249  A    between atoms: _606  and  _607
REMARK  250  A    between atoms: _609  and  _611
REMARK  251  A    between atoms: _611  and  _612
REMARK  252  A    between atoms: _611  and  _614
REMARK  253  A    between atoms: _614  and  _615
REMARK  254  A    between atoms: _620  and  _622
REMARK  255  A    between atoms: _622  and  _623
REMARK  256  A    between atoms: _622  and  _625
REMARK  257  A    between atoms: _625  and  _626
REMARK  258  A    between atoms: _629  and  _631
REMARK  259  A    between atoms: _631  and  _632
REMARK  260  A    between atoms: _631  and  _634
REMARK  261  A    between atoms: _634  and  _635
REMARK  262  A    between atoms: _641  and  _643
REMARK  263  A    between atoms: _643  and  _644
REMARK  264  A    between atoms: _643  and  _646
REMARK  265  A    between atoms: _646  and  _647
REMARK  266  A    between atoms: _647  and  _648
REMARK  267  A    between atoms: _651  and  _653
REMARK  268  A    between atoms: _653  and  _654
REMARK  269  A    between atoms: _653  and  _656
REMARK  270  A    between atoms: _656  and  _657
REMARK  271  A    between atoms: _657  and  _658
REMARK  272  A    between atoms: _663  and  _665
REMARK  273  A    between atoms: _665  and  _666
REMARK  274  A    between atoms: _665  and  _668
REMARK  275  A    between atoms: _668  and  _669
REMARK  276  A    between atoms: _669  and  _670
REMARK  277  A    between atoms: _670  and  _671
REMARK  278  A    between atoms: _680  and  _682
REMARK  279  A    between atoms: _682  and  _683
REMARK  280  A    between atoms: _682  and  _685
REMARK  281  A    between atoms: _685  and  _686
REMARK  282  A    between atoms: _686  and  _687
REMARK  283  A    between atoms: _687  and  _688
REMARK  284  A    between atoms: _697  and  _699
REMARK  285  A    between atoms: _699  and  _700
REMARK  286  A    between atoms: _699  and  _702
REMARK  287  A    between atoms: _702  and  _703
REMARK  288  A    between atoms: _708  and  _709
REMARK  289  A    between atoms: _711  and  _713
REMARK  290  A    between atoms: _713  and  _714
REMARK  291  A    between atoms: _713  and  _716
REMARK  292  A    between atoms: _716  and  _717
REMARK  293  A    between atoms: _720  and  _722
REMARK  294  A    between atoms: _722  and  _723
REMARK  295  A    between atoms: _722  and  _725
REMARK  296  A    between atoms: _725  and  _726
REMARK  297  A    between atoms: _726  and  _727
REMARK  298  A    between atoms: _727  and  _728
REMARK  299  A    between atoms: _728  and  _729
REMARK  300  A    between atoms: _733  and  _735
REMARK  301  A    between atoms: _735  and  _736
REMARK  302  A    between atoms: _735  and  _738
REMARK  303  A    between atoms: _738  and  _739
REMARK  304  A    between atoms: _744  and  _746
REMARK  305  A    between atoms: _746  and  _747
REMARK  306  A    between atoms: _746  and  _749
REMARK  307  A    between atoms: _749  and  _750
REMARK  308  A    between atoms: _760  and  _762
REMARK  309  A    between atoms: _762  and  _763
REMARK  310  A    between atoms: _762  and  _765
REMARK  311  A    between atoms: _765  and  _766
REMARK  312  A    between atoms: _766  and  _767
REMARK  313  A    between atoms: _770  and  _772
REMARK  314  A    between atoms: _772  and  _773
REMARK  315  A    between atoms: _772  and  _775
REMARK  316  A    between atoms: _775  and  _776
REMARK  317  A    between atoms: _779  and  _781
REMARK  318  A    between atoms: _781  and  _782
REMARK  319  A    between atoms: _781  and  _784
REMARK  320  A    between atoms: _784  and  _785
REMARK  321  A    between atoms: _790  and  _792
REMARK  322  A    between atoms: _792  and  _793
REMARK  323  A    between atoms: _792  and  _795
REMARK  324  A    between atoms: _795  and  _796
REMARK  325  A    between atoms: _802  and  _804
REMARK  326  A    between atoms: _804  and  _805
REMARK  327  A    between atoms: _804  and  _807
REMARK  328  A    between atoms: _807  and  _808
REMARK  329  A    between atoms: _810  and  _812
REMARK  330  A    between atoms: _812  and  _813
REMARK  331  A    between atoms: _815  and  _817
REMARK  332  A    between atoms: _817  and  _818
REMARK  333  A    between atoms: _817  and  _820
REMARK  334  A    between atoms: _820  and  _821
REMARK  335  A    between atoms: _826  and  _827
REMARK  336  A    between atoms: _829  and  _831
REMARK  337  A    between atoms: _831  and  _832
REMARK  338  A    between atoms: _831  and  _834
REMARK  339  A    between atoms: _834  and  _835
REMARK  340  A    between atoms: _840  and  _841
REMARK  341  A    between atoms: _843  and  _845
REMARK  342  A    between atoms: _845  and  _846
REMARK  343  A    between atoms: _845  and  _848
REMARK  344  A    between atoms: _848  and  _849
REMARK  345  A    between atoms: _853  and  ZN_1037
REMARK  346  A    between atoms: _854  and  _856
REMARK  347  A    between atoms: _856  and  _857
REMARK  348  A    between atoms: _856  and  _859
REMARK  349  A    between atoms: _859  and  _860
REMARK  350  A    between atoms: _860  and  _861
REMARK  351  A    between atoms: _864  and  _866
REMARK  352  A    between atoms: _866  and  _867
REMARK  353  A    between atoms: _866  and  _869
REMARK  354  A    between atoms: _869  and  _870
REMARK  355  A    between atoms: _870  and  _871
REMARK  356  A    between atoms: _871  and  _872
REMARK  357  A    between atoms: _881  and  _883
REMARK  358  A    between atoms: _883  and  _884
REMARK  359  A    between atoms: _883  and  _886
REMARK  360  A    between atoms: _886  and  _887
REMARK  361  A    between atoms: _887  and  _888
REMARK  362  A    between atoms: _888  and  _889
REMARK  363  A    between atoms: _889  and  _890
REMARK  364  A    between atoms: _894  and  _896
REMARK  365  A    between atoms: _896  and  _897
REMARK  366  A    between atoms: _896  and  _899
REMARK  367  A    between atoms: _899  and  _900
REMARK  368  A    between atoms: _905  and  _906
REMARK  369  A    between atoms: _908  and  _910
REMARK  370  A    between atoms: _910  and  _911
REMARK  371  A    between atoms: _910  and  _913
REMARK  372  A    between atoms: _913  and  _914
REMARK  373  A    between atoms: _914  and  _915
REMARK  374  A    between atoms: _915  and  _916
REMARK  375  A    between atoms: _916  and  _917
REMARK  376  A    between atoms: _921  and  _923
REMARK  377  A    between atoms: _923  and  _924
REMARK  378  A    between atoms: _923  and  _926
REMARK  379  A    between atoms: _926  and  _927
REMARK  380  A    between atoms: _932  and  _933
REMARK  381  A    between atoms: _935  and  _937
REMARK  382  A    between atoms: _937  and  _938
REMARK  383  A    between atoms: _937  and  _940
REMARK  384  A    between atoms: _940  and  _941
REMARK  385  A    between atoms: _946  and  _947
REMARK  386  A    between atoms: _949  and  _951
REMARK  387  A    between atoms: _951  and  _952
REMARK  388  A    between atoms: _956  and  _957
REMARK  389  A    between atoms: _962  and  _964
REMARK  390  A    between atoms: _964  and  _965
REMARK  391  A    between atoms: _964  and  _967
REMARK  392  A    between atoms: _967  and  _968
REMARK  393  A    between atoms: _970  and  _972
REMARK  394  A    between atoms: _972  and  _973
REMARK  395  A    between atoms: _972  and  _975
REMARK  396  A    between atoms: _975  and  _976
REMARK  397  A    between atoms: _981  and  _983
REMARK  398  A    between atoms: _983  and  _984
REMARK  399  A    between atoms: _983  and  _986
REMARK  400  A    between atoms: _986  and  _987
REMARK  401  A    between atoms: _987  and  _988
REMARK  402  A    between atoms: _988  and  _989
REMARK  403  A    between atoms: _989  and  _990
REMARK  404  A    between atoms: _994  and  _996
REMARK  405  A    between atoms: _996  and  _997
REMARK  406  A    between atoms: _996  and  _999
REMARK  407  A    between atoms: _999  and  _1000
REMARK  408  A    between atoms: _1005  and  _1006
REMARK  409  A    between atoms: _1008  and  _1010
REMARK  410  A    between atoms: _1010  and  _1011
REMARK  411  A    between atoms: _1014  and  _1016
REMARK  412  A    between atoms: _1016  and  _1017
REMARK  413  A    between atoms: _1019  and  _1021
REMARK  414  A    between atoms: _1021  and  _1022
REMARK  415  A    between atoms: _1021  and  _1024
REMARK  416  A    between atoms: _1024  and  _1025
REMARK  417  A    between atoms: _1025  and  _1026
REMARK  418  A    between atoms: _1029  and  _1031
REMARK  419  A    between atoms: _1031  and  _1032
REMARK  420  A    between atoms: _1031  and  _1034
REMARK  421  A    between atoms: _1034  and  _1035
REMARK                            x       y       z     vdW  Elec       q    Type
REMARK                         _______ _______ _______ _____ _____    ______ ____
ROOT
ATOM      1  CA  PHE A   2       8.932  41.489  30.706  0.00  0.00    +0.141 C 
ENDROOT
BRANCH   1   4
ATOM      2  C   ALA A   1      10.943  40.785  32.085  0.00  0.00    +0.238 C 
ATOM      3  O   ALA A   1      11.489  41.896  32.180  0.00  0.00    -0.274 OA
ATOM      4  N   PHE A   2       9.791  40.528  31.418  0.00  0.00    -0.298 N 
ATOM      5  H   PHE A   2       9.477  39.536  31.408  0.00  0.00    +0.150 HD
BRANCH   2   6
ATOM      6  CA  ALA A   1      11.544  39.579  32.791  0.00  0.00    +0.145 C 
ATOM      7  CB  ALA A   1      11.311  39.649  34.317  0.00  0.00    +0.028 C 
BRANCH   6   8
ATOM      8  N   ALA A   1      12.973  39.425  32.484  0.00  0.00    -0.238 NA
ATOM      9  H   ALA A   1      13.685  39.472  33.240  0.00  0.00    +0.142 HD
ENDBRANCH   6   8
ENDBRANCH   2   6
ENDBRANCH   1   4
BRANCH   1  10
ATOM     10  C   PHE A   2       9.362  41.705  29.271  0.00  0.00    +0.227 C 
ATOM     11  O   PHE A   2       8.765  42.537  28.570  0.00  0.00    -0.286 OA
ENDBRANCH   1  10
BRANCH   1  12
ATOM     12  CB  PHE A   2       8.676  42.787  31.434  0.00  0.00    +0.054 C 
BRANCH  12  13
ATOM     13  CG  PHE A   2       8.037  42.592  32.775  0.00  0.00    -0.020 A 
ATOM     14  CD2 PHE A   2       8.801  42.587  33.944  0.00  0.00    -0.004 A 
ATOM     15  CE2 PHE A   2       8.190  42.409  35.195  0.00  0.00    -0.000 A 
ATOM     16  CZ  PHE A   2       6.759  42.275  35.257  0.00  0.00    -0.000 A 
ATOM     17  CE1 PHE A   2       6.009  42.293  34.098  0.00  0.00    -0.000 A 
ATOM     18  CD1 PHE A   2       6.631  42.420  32.861  0.00  0.00    -0.004 A 
ENDBRANCH  12  13
ENDBRANCH   1  12
TORSDOF 6
REMARK  Name = ../refined-set-2016/2xef/2xef_pocket.pdb
REMARK  421 active torsions:
REMARK  status: ('A' for Active; 'I' for Inactive)
REMARK    1  A    between atoms: _1  and  _3
REMARK    2  A    between atoms: _3  and  _4
REMARK    3  A    between atoms: _7  and  _9
REMARK    4  A    between atoms: _9  and  _10
REMARK    5  A    between atoms: _9  and  _12
REMARK    6  A    between atoms: _12  and  _13
REMARK    7  A    between atoms: _19  and  _21
REMARK    8  A    between atoms: _21  and  _22
REMARK    9  A    between atoms: _21  and  _24
REMARK   10  A    between atoms: _24  and  _25
REMARK   11  A    between atoms: _30  and  _31
REMARK   12  A    between atoms: _33  and  _35
REMARK   13  A    between atoms: _35  and  _36
REMARK   14  A    between atoms: _38  and  _40
REMARK   15  A    between atoms: _40  and  _41
REMARK   16  A    between atoms: _40  and  _43
REMARK   17  A    between atoms: _43  and  _44
REMARK   18  A    between atoms: _44  and  _45
REMARK   19  A    between atoms: _45  and  _46
REMARK   20  A    between atoms: _46  and  _47
REMARK   21  A    between atoms: _51  and  _53
REMARK   22  A    between atoms: _53  and  _54
REMARK   23  A    between atoms: _53  and  _56
REMARK   24  A    between atoms: _59  and  _61
REMARK   25  A    between atoms: _61  and  _62
REMARK   26  A    between atoms: _61  and  _64
REMARK   27  A    between atoms: _64  and  _65
REMARK   28  A    between atoms: _71  and  _73
REMARK   29  A    between atoms: _73  and  _74
REMARK   30  A    between atoms: _73  and  _76
REMARK   31  A    between atoms: _76  and  _77
REMARK   32  A    between atoms: _77  and  _78
REMARK   33  A    between atoms: _78  and  _79
REMARK   34  A    between atoms: _88  and  _90
REMARK   35  A    between atoms: _90  and  _91
REMARK   36  A    between atoms: _93  and  _95
REMARK   37  A    between atoms: _95  and  _96
REMARK   38  A    between atoms: _95  and  _98
REMARK   39  A    between atoms: _98  and  _99
REMARK   40  A    between atoms: _99  and  _100
REMARK   41  A    between atoms: _100  and  _101
REMARK   42  A    between atoms: _101  and  _102
REMARK   43  A    between atoms: _106  and  _108
REMARK   44  A    between atoms: _108  and  _109
REMARK   45  A    between atoms: _108  and  _111
REMARK   46  A    between atoms: _111  and  _112
REMARK   47  A    between atoms: _117  and  _118
REMARK   48  A    between atoms: _120  and  _122
REMARK   49  A    between atoms: _122  and  _123
REMARK   50  A    between atoms: _122  and  _125
REMARK   51  A    between atoms: _125  and  _126
REMARK   52  A    between atoms: _126  and  _127
REMARK   53  A    between atoms: _132  and  _134
REMARK   54  A    between atoms: _134  and  _135
REMARK   55  A    between atoms: _134  and  _137
REMARK   56  A    between atoms: _137  and  _138
REMARK   57  A    between atoms: _138  and  _139
REMARK   58  A    between atoms: _139  and  _140
REMARK   59  A    between atoms: _149  and  _151
REMARK   60  A    between atoms: _151  and  _152
REMARK   61  A    between atoms: _154  and  _156
REMARK   62  A    between atoms: _156  and  _157
REMARK   63  A    between atoms: _156  and  _159
REMARK   64  A    between atoms: _159  and  _160
REMARK   65  A    between atoms: _165  and  _167
REMARK   66  A    between atoms: _167  and  _168
REMARK   67  A    between atoms: _167  and  _170
REMARK   68  A    between atoms: _170  and  _171
REMARK   69  A    between atoms: _174  and  _176
REMARK   70  A    between atoms: _176  and  _177
REMARK   71  A    between atoms: _176  and  _179
REMARK   72  A    between atoms: _179  and  _180
REMARK   73  A    between atoms: _183  and  _185
REMARK   74  A    between atoms: _185  and  _186
REMARK   75  A    between atoms: _185  and  _188
REMARK   76  A    between atoms: _188  and  _189
REMARK   77  A    between atoms: _194  and  _196
REMARK   78  A    between atoms: _196  and  _197
REMARK   79  A    between atoms: _196  and  _199
REMARK   80  A    between atoms: _199  and  _200
REMARK   81  A    between atoms: _203  and  _205
REMARK   82  A    between atoms: _205  and  _206
REMARK   83  A    between atoms: _205  and  _208
REMARK   84  A    between atoms: _208  and  _209
REMARK   85  A    between atoms: _214  and  _216
REMARK   86  A    between atoms: _216  and  _217
REMARK   87  A    between atoms: _219  and  _221
REMARK   88  A    between atoms: _221  and  _222
REMARK   89  A    between atoms: _224  and  _226
REMARK   90  A    between atoms: _226  and  _227
REMARK   91  A    between atoms: _226  and  _229
REMARK   92  A    between atoms: _229  and  _230
REMARK   93  A    between atoms: _234  and  ZN_1038
REMARK   94  A    between atoms: _235  and  _237
REMARK   95  A    between atoms: _237  and  _238
REMARK   96  A    between atoms: _237  and  _240
REMARK   97  A    between atoms: _240  and  _241
REMARK   98  A    between atoms: _244  and  _246
REMARK   99  A    between atoms: _246  and  _247
REMARK  100  A    between atoms: _246  and  _249
REMARK  101  A    between atoms: _249  and  _250
REMARK  102  A    between atoms: _260  and  _262
REMARK  103  A    between atoms: _262  and  _263
REMARK  104  A    between atoms: _262  and  _265
REMARK  105  A    between atoms: _265  and  _266
REMARK  106  A    between atoms: _269  and  _271
REMARK  107  A    between atoms: _271  and  _272
REMARK  108  A    between atoms: _271  and  _274
REMARK  109  A    between atoms: _274  and  _275
REMARK  110  A    between atoms: _279  and  _280
REMARK  111  A    between atoms: _285  and  _287
REMARK  112  A    between atoms: _287  and  _288
REMARK  113  A    between atoms: _291  and  _293
REMARK  114  A    between atoms: _293  and  _294
REMARK  115  A    between atoms: _293  and  _296
REMARK  116  A    between atoms: _296  and  _297
REMARK  117  A    between atoms: _297  and  _298
REMARK  118  A    between atoms: _301  and  _303
REMARK  119  A    between atoms: _303  and  _304
REMARK  120  A    between atoms: _303  and  _306
REMARK  121  A    between atoms: _306  and  _307
REMARK  122  A    between atoms: _307  and  _308
REMARK  123  A    between atoms: _308  and  _310
REMARK  124  A    between atoms: _310  and  ZN_1037
REMARK  125  A    between atoms: _311  and  _313
REMARK  126  A    between atoms: _313  and  _314
REMARK  127  A    between atoms: _313  and  _316
REMARK  128  A    between atoms: _316  and  _317
REMARK  129  A    between atoms: _323  and  _325
REMARK  130  A    between atoms: _325  and  _326
REMARK  131  A    between atoms: _328  and  _330
REMARK  132  A    between atoms: _330  and  _331
REMARK  133  A    between atoms: _330  and  _333
REMARK  134  A    between atoms: _333  and  _334
REMARK  135  A    between atoms: _337  and  _339
REMARK  136  A    between atoms: _339  and  _340
REMARK  137  A    between atoms: _339  and  _342
REMARK  138  A    between atoms: _342  and  _343
REMARK  139  A    between atoms: _346  and  _348
REMARK  140  A    between atoms: _348  and  _349
REMARK  141  A    between atoms: _348  and  _351
REMARK  142  A    between atoms: _351  and  _352
REMARK  143  A    between atoms: _357  and  _359
REMARK  144  A    between atoms: _359  and  _360
REMARK  145  A    between atoms: _359  and  _362
REMARK  146  A    between atoms: _362  and  _363
REMARK  147  A    between atoms: _363  and  _365
REMARK  148  A    between atoms: _365  and  ZN_1038
REMARK  149  A    between atoms: _366  and  _368
REMARK  150  A    between atoms: _368  and  _369
REMARK  151  A    between atoms: _368  and  _371
REMARK  152  A    between atoms: _371  and  _372
REMARK  153  A    between atoms: _374  and  _376
REMARK  154  A    between atoms: _376  and  _377
REMARK  155  A    between atoms: _376  and  _379
REMARK  156  A    between atoms: _379  and  _380
REMARK  157  A    between atoms: _382  and  _384
REMARK  158  A    between atoms: _384  and  _385
REMARK  159  A    between atoms: _384  and  _387
REMARK  160  A    between atoms: _387  and  _388
REMARK  161  A    between atoms: _391  and  _393
REMARK  162  A    between atoms: _393  and  _394
REMARK  163  A    between atoms: _393  and  _396
REMARK  164  A    between atoms: _396  and  _397
REMARK  165  A    between atoms: _397  and  _398
REMARK  166  A    between atoms: _401  and  _403
REMARK  167  A    between atoms: _403  and  _404
REMARK  168  A    between atoms: _403  and  _406
REMARK  169  A    between atoms: _406  and  _407
REMARK  170  A    between atoms: _412  and  _413
REMARK  171  A    between atoms: _415  and  _417
REMARK  172  A    between atoms: _417  and  _418
REMARK  173  A    between atoms: _417  and  _420
REMARK  174  A    between atoms: _420  and  _421
REMARK  175  A    between atoms: _424  and  _426
REMARK  176  A    between atoms: _426  and  _427
REMARK  177  A    between atoms: _426  and  _429
REMARK  178  A    between atoms: _429  and  _430
REMARK  179  A    between atoms: _433  and  _435
REMARK  180  A    between atoms: _435  and  _436
REMARK  181  A    between atoms: _435  and  _438
REMARK  182  A    between atoms: _438  and  _439
REMARK  183  A    between atoms: _439  and  _440
REMARK  184  A    between atoms: _440  and  _441
REMARK  185  A    between atoms: _450  and  _452
REMARK  186  A    between atoms: _452  and  _453
REMARK  187  A    between atoms: _452  and  _455
REMARK  188  A    between atoms: _458  and  _460
REMARK  189  A    between atoms: _460  and  _461
REMARK  190  A    between atoms: _460  and  _463
REMARK  191  A    between atoms: _463  and  _464
REMARK  192  A    between atoms: _467  and  _469
REMARK  193  A    between atoms: _469  and  _470
REMARK  194  A    between atoms: _469  and  _472
REMARK  195  A    between atoms: _474  and  _476
REMARK  196  A    between atoms: _476  and  _477
REMARK  197  A    between atoms: _476  and  _479
REMARK  198  A    between atoms: _479  and  _480
REMARK  199  A    between atoms: _490  and  _492
REMARK  200  A    between atoms: _492  and  _493
REMARK  201  A    between atoms: _492  and  _495
REMARK  202  A    between atoms: _495  and  _496
REMARK  203  A    between atoms: _496  and  _497
REMARK  204  A    between atoms: _497  and  _498
REMARK  205  A    between atoms: _498  and  _499
REMARK  206  A    between atoms: _503  and  _505
REMARK  207  A    between atoms: _505  and  _506
REMARK  208  A    between atoms: _505  and  _508
REMARK  209  A    between atoms: _508  and  _509
REMARK  210  A    between atoms: _512  and  _513
REMARK  211  A    between atoms: _519  and  _520
REMARK  212  A    between atoms: _525  and  _527
REMARK  213  A    between atoms: _527  and  _528
REMARK  214  A    between atoms: _527  and  _530
REMARK  215  A    between atoms: _530  and  _531
REMARK  216  A    between atoms: _531  and  _532
REMARK  217  A    between atoms: _535  and  _537
REMARK  218  A    between atoms: _537  and  _538
REMARK  219  A    between atoms: _537  and  _540
REMARK  220  A    between atoms: _540  and  _541
REMARK  221  A    between atoms: _541  and  _542
REMARK  222  A    between atoms: _542  and  _543
REMARK  223  A    between atoms: _552  and  _554
REMARK  224  A    between atoms: _554  and  _555
REMARK  225  A    between atoms: _554  and  _557
REMARK  226  A    between atoms: _557  and  _558
REMARK  227  A    between atoms: _561  and  _563
REMARK  228  A    between atoms: _563  and  _564
REMARK  229  A    between atoms: _563  and  _566
REMARK  230  A    between atoms: _566  and  _567
REMARK  231  A    between atoms: _569  and  _571
REMARK  232  A    between atoms: _571  and  _572
REMARK  233  A    between atoms: _571  and  _574
REMARK  234  A    between atoms: _574  and  _575
REMARK  235  A    between atoms: _575  and  _576
REMARK  236  A    between atoms: _576  and  _577
REMARK  237  A    between atoms: _577  and  _578
REMARK  238  A    between atoms: _582  and  _584
REMARK  239  A    between atoms: _584  and  _585
REMARK  240  A    between atoms: _584  and  _587
REMARK  241  A    between atoms: _587  and  _588
REMARK  242  A    between atoms: _591  and  _593
REMARK  243  A    between atoms: _593  and  _594
REMARK  244  A    between atoms: _596  and  _598
REMARK  245  A    between atoms: _598  and  _599
REMARK  246  A    between atoms: _598  and  _601
REMARK  247  A    between atoms: _601  and  _602
REMARK  248  A    between atoms: _604  and  _606
REMARK  249  A    between atoms: _606  and  _607
REMARK  250  A    between atoms: _609  and  _611
REMARK  251  A    between atoms: _611  and  _612
REMARK  252  A    between atoms: _611  and  _614
REMARK  253  A    between atoms: _614  and  _615
REMARK  254  A    between atoms: _620  and  _622
REMARK  255  A    between atoms: _622  and  _623
REMARK  256  A    between atoms: _622  and  _625
REMARK  257  A    between atoms: _625  and  _626
REMARK  258  A    between atoms: _629  and  _631
REMARK  259  A    between atoms: _631  and  _632
REMARK  260  A    between atoms: _631  and  _634
REMARK  261  A    between atoms: _634  and  _635
REMARK  262  A    between atoms: _641  and  _643
REMARK  263  A    between atoms: _643  and  _644
REMARK  264  A    between atoms: _643  and  _646
REMARK  265  A    between atoms: _646  and  _647
REMARK  266  A    between atoms: _647  and  _648
REMARK  267  A    between atoms: _651  and  _653
REMARK  268  A    between atoms: _653  and  _654
REMARK  269  A    between atoms: _653  and  _656
REMARK  270  A    between atoms: _656  and  _657
REMARK  271  A    between atoms: _657  and  _658
REMARK  272  A    between atoms: _663  and  _665
REMARK  273  A    between atoms: _665  and  _666
REMARK  274  A    between atoms: _665  and  _668
REMARK  275  A    between atoms: _668  and  _669
REMARK  276  A    between atoms: _669  and  _670
REMARK  277  A    between atoms: _670  and  _671
REMARK  278  A    between atoms: _680  and  _682
REMARK  279  A    between atoms: _682  and  _683
REMARK  280  A    between atoms: _682  and  _685
REMARK  281  A    between atoms: _685  and  _686
REMARK  282  A    between atoms: _686  and  _687
REMARK  283  A    between atoms: _687  and  _688
REMARK  284  A    between atoms: _697  and  _699
REMARK  285  A    between atoms: _699  and  _700
REMARK  286  A    between atoms: _699  and  _702
REMARK  287  A    between atoms: _702  and  _703
REMARK  288  A    between atoms: _708  and  _709
REMARK  289  A    between atoms: _711  and  _713
REMARK  290  A    between atoms: _713  and  _714
REMARK  291  A    between atoms: _713  and  _716
REMARK  292  A    between atoms: _716  and  _717
REMARK  293  A    between atoms: _720  and  _722
REMARK  294  A    between atoms: _722  and  _723
REMARK  295  A    between atoms: _722  and  _725
REMARK  296  A    between atoms: _725  and  _726
REMARK  297  A    between atoms: _726  and  _727
REMARK  298  A    between atoms: _727  and  _728
REMARK  299  A    between atoms: _728  and  _729
REMARK  300  A    between atoms: _733  and  _735
REMARK  301  A    between atoms: _735  and  _736
REMARK  302  A    between atoms: _735  and  _738
REMARK  303  A    between atoms: _738  and  _739
REMARK  304  A    between atoms: _744  and  _746
REMARK  305  A    between atoms: _746  and  _747
REMARK  306  A    between atoms: _746  and  _749
REMARK  307  A    between atoms: _749  and  _750
REMARK  308  A    between atoms: _760  and  _762
REMARK  309  A    between atoms: _762  and  _763
REMARK  310  A    between atoms: _762  and  _765
REMARK  311  A    between atoms: _765  and  _766
REMARK  312  A    between atoms: _766  and  _767
REMARK  313  A    between atoms: _770  and  _772
REMARK  314  A    between atoms: _772  and  _773
REMARK  315  A    between atoms: _772  and  _775
REMARK  316  A    between atoms: _775  and  _776
REMARK  317  A    between atoms: _779  and  _781
REMARK  318  A    between atoms: _781  and  _782
REMARK  319  A    between atoms: _781  and  _784
REMARK  320  A    between atoms: _784  and  _785
REMARK  321  A    between atoms: _790  and  _792
REMARK  322  A    between atoms: _792  and  _793
REMARK  323  A    between atoms: _792  and  _795
REMARK  324  A    between atoms: _795  and  _796
REMARK  325  A    between atoms: _802  and  _804
REMARK  326  A    between atoms: _804  and  _805
REMARK  327  A    between atoms: _804  and  _807
REMARK  328  A    between atoms: _807  and  _808
REMARK  329  A    between atoms: _810  and  _812
REMARK  330  A    between atoms: _812  and  _813
REMARK  331  A    between atoms: _815  and  _817
REMARK  332  A    between atoms: _817  and  _818
REMARK  333  A    between atoms: _817  and  _820
REMARK  334  A    between atoms: _820  and  _821
REMARK  335  A    between atoms: _826  and  _827
REMARK  336  A    between atoms: _829  and  _831
REMARK  337  A    between atoms: _831  and  _832
REMARK  338  A    between atoms: _831  and  _834
REMARK  339  A    between atoms: _834  and  _835
REMARK  340  A    between atoms: _840  and  _841
REMARK  341  A    between atoms: _843  and  _845
REMARK  342  A    between atoms: _845  and  _846
REMARK  343  A    between atoms: _845  and  _848
REMARK  344  A    between atoms: _848  and  _849
REMARK  345  A    between atoms: _853  and  ZN_1037
REMARK  346  A    between atoms: _854  and  _856
REMARK  347  A    between atoms: _856  and  _857
REMARK  348  A    between atoms: _856  and  _859
REMARK  349  A    between atoms: _859  and  _860
REMARK  350  A    between atoms: _860  and  _861
REMARK  351  A    between atoms: _864  and  _866
REMARK  352  A    between atoms: _866  and  _867
REMARK  353  A    between atoms: _866  and  _869
REMARK  354  A    between atoms: _869  and  _870
REMARK  355  A    between atoms: _870  and  _871
REMARK  356  A    between atoms: _871  and  _872
REMARK  357  A    between atoms: _881  and  _883
REMARK  358  A    between atoms: _883  and  _884
REMARK  359  A    between atoms: _883  and  _886
REMARK  360  A    between atoms: _886  and  _887
REMARK  361  A    between atoms: _887  and  _888
REMARK  362  A    between atoms: _888  and  _889
REMARK  363  A    between atoms: _889  and  _890
REMARK  364  A    between atoms: _894  and  _896
REMARK  365  A    between atoms: _896  and  _897
REMARK  366  A    between atoms: _896  and  _899
REMARK  367  A    between atoms: _899  and  _900
REMARK  368  A    between atoms: _905  and  _906
REMARK  369  A    between atoms: _908  and  _910
REMARK  370  A    between atoms: _910  and  _911
REMARK  371  A    between atoms: _910  and  _913
REMARK  372  A    between atoms: _913  and  _914
REMARK  373  A    between atoms: _914  and  _915
REMARK  374  A    between atoms: _915  and  _916
REMARK  375  A    between atoms: _916  and  _917
REMARK  376  A    between atoms: _921  and  _923
REMARK  377  A    between atoms: _923  and  _924
REMARK  378  A    between atoms: _923  and  _926
REMARK  379  A    between atoms: _926  and  _927
REMARK  380  A    between atoms: _932  and  _933
REMARK  381  A    between atoms: _935  and  _937
REMARK  382  A    between atoms: _937  and  _938
REMARK  383  A    between atoms: _937  and  _940
REMARK  384  A    between atoms: _940  and  _941
REMARK  385  A    between atoms: _946  and  _947
REMARK  386  A    between atoms: _949  and  _951
REMARK  387  A    between atoms: _951  and  _952
REMARK  388  A    between atoms: _956  and  _957
REMARK  389  A    between atoms: _962  and  _964
REMARK  390  A    between atoms: _964  and  _965
REMARK  391  A    between atoms: _964  and  _967
REMARK  392  A    between atoms: _967  and  _968
REMARK  393  A    between atoms: _970  and  _972
REMARK  394  A    between atoms: _972  and  _973
REMARK  395  A    between atoms: _972  and  _975
REMARK  396  A    between atoms: _975  and  _976
REMARK  397  A    between atoms: _981  and  _983
REMARK  398  A    between atoms: _983  and  _984
REMARK  399  A    between atoms: _983  and  _986
REMARK  400  A    between atoms: _986  and  _987
REMARK  401  A    between atoms: _987  and  _988
REMARK  402  A    between atoms: _988  and  _989
REMARK  403  A    between atoms: _989  and  _990
REMARK  404  A    between atoms: _994  and  _996
REMARK  405  A    between atoms: _996  and  _997
REMARK  406  A    between atoms: _996  and  _999
REMARK  407  A    between atoms: _999  and  _1000
REMARK  408  A    between atoms: _1005  and  _1006
REMARK  409  A    between atoms: _1008  and  _1010
REMARK  410  A    between atoms: _1010  and  _1011
REMARK  411  A    between atoms: _1014  and  _1016
REMARK  412  A    between atoms: _1016  and  _1017
REMARK  413  A    between atoms: _1019  and  _1021
REMARK  414  A    between atoms: _1021  and  _1022
REMARK  415  A    between atoms: _1021  and  _1024
REMARK  416  A    between atoms: _1024  and  _1025
REMARK  417  A    between atoms: _1025  and  _1026
REMARK  418  A    between atoms: _1029  and  _1031
REMARK  419  A    between atoms: _1031  and  _1032
REMARK  420  A    between atoms: _1031  and  _1034
REMARK  421  A    between atoms: _1034  and  _1035
REMARK                            x       y       z     vdW  Elec       q    Type
REMARK                         _______ _______ _______ _____ _____    ______ ____
ROOT
ATOM      1  CA  VAL A   4      23.936  50.917  35.232  0.00  0.00    +0.149 C 
ENDROOT
BRANCH   1   4
ATOM      2  C   LYS A   3      26.320  50.801  35.798  0.00  0.00    +0.241 C 
ATOM      3  O   LYS A   3      26.211  51.707  36.649  0.00  0.00    -0.273 OA
ATOM      4  N   VAL A   4      25.291  50.323  35.092  0.00  0.00    -0.297 N 
ATOM      5  H   VAL A   4      25.440  49.528  34.438  0.00  0.00    +0.150 HD
BRANCH   2   6
ATOM      6  CA  LYS A   3      27.684  50.182  35.590  0.00  0.00    +0.149 C 
BRANCH   6   8
ATOM      7  C   GLY A   2      27.210  47.930  34.618  0.00  0.00    +0.243 C 
ATOM      8  N   LYS A   3      27.687  48.692  35.599  0.00  0.00    -0.297 N 
ATOM      9  H   LYS A   3      28.090  48.214  36.430  0.00  0.00    +0.150 HD
ATOM     10  O   GLY A   2      26.606  48.351  33.633  0.00  0.00    -0.273 OA
BRANCH   7  11
ATOM     11  CA  GLY A   2      27.430  46.444  34.792  0.00  0.00    +0.176 C 
BRANCH  11  13
ATOM     12  C   TYR A   1      27.103  44.828  32.937  0.00  0.00    +0.239 C 
ATOM     13  N   GLY A   2      26.588  45.684  33.833  0.00  0.00    -0.296 N 
ATOM     14  H   GLY A   2      25.557  45.821  33.857  0.00  0.00    +0.150 HD
ATOM     15  O   TYR A   1      28.316  44.673  32.763  0.00  0.00    -0.274 OA
BRANCH  12  16
ATOM     16  CA  TYR A   1      26.092  44.017  32.131  0.00  0.00    +0.149 C 
BRANCH  16  17
ATOM     17  N   TYR A   1      26.699  43.574  30.877  0.00  0.00    -0.238 NA
ATOM     18  H   TYR A   1      26.880  42.564  30.709  0.00  0.00    +0.142 HD
ENDBRANCH  16  17
BRANCH  16  19
ATOM     19  CB  TYR A   1      25.714  42.792  32.920  0.00  0.00    +0.053 C 
BRANCH  19  20
ATOM     20  CG  TYR A   1      24.324  42.173  32.749  0.00  0.00    -0.020 A 
ATOM     21  CD2 TYR A   1      23.176  42.890  33.012  0.00  0.00    -0.001 A 
ATOM     22  CE2 TYR A   1      21.907  42.286  32.970  0.00  0.00    +0.036 A 
ATOM     23  CZ  TYR A   1      21.781  40.920  32.687  0.00  0.00    +0.134 A 
ATOM     24  CE1 TYR A   1      22.942  40.167  32.405  0.00  0.00    +0.036 A 
ATOM     25  CD1 TYR A   1      24.202  40.797  32.476  0.00  0.00    -0.001 A 
BRANCH  23  26
ATOM     26  OH  TYR A   1      20.512  40.349  32.728  0.00  0.00    -0.506 OA
ATOM     27  HH  TYR A   1      20.577  39.386  32.508  0.00  0.00    +0.292 HD
ENDBRANCH  23  26
ENDBRANCH  19  20
ENDBRANCH  16  19
ENDBRANCH  12  16
ENDBRANCH  11  13
ENDBRANCH   7  11
ENDBRANCH   6   8
BRANCH   6  28
ATOM     28  CB  LYS A   3      28.267  50.788  34.325  0.00  0.00    +0.029 C 
BRANCH  28  29
ATOM     29  CG  LYS A   3      29.713  50.322  33.973  0.00  0.00    +0.000 C 
BRANCH  29  30
ATOM     30  CD  LYS A   3      30.716  50.742  34.992  0.00  0.00    -0.024 C 
BRANCH  30  31
ATOM     31  CE  LYS A   3      32.100  50.348  34.476  0.00  0.00    -0.086 C 
BRANCH  31  32
ATOM     32  NZ  LYS A   3      33.014  50.332  35.655  0.00  0.00    +0.380 N 
ATOM     33  HZ1 LYS A   3      32.669  49.640  36.350  0.00  0.00    -0.089 HD
ATOM     34  HZ2 LYS A   3      33.037  51.278  36.087  0.00  0.00    -0.089 HD
ATOM     35  HZ3 LYS A   3      33.971  50.067  35.346  0.00  0.00    -0.089 HD
ENDBRANCH  31  32
ENDBRANCH  30  31
ENDBRANCH  29  30
ENDBRANCH  28  29
ENDBRANCH   6  28
ENDBRANCH   2   6
ENDBRANCH   1   4
BRANCH   1  36
ATOM     36  C   VAL A   4      22.887  49.839  35.246  0.00  0.00    +0.241 C 
ATOM     37  N   PHE A   5      21.688  50.202  35.743  0.00  0.00    -0.297 N 
ATOM     38  H   PHE A   5      21.561  51.160  36.127  0.00  0.00    +0.150 HD
ATOM     39  O   VAL A   4      23.131  48.719  34.722  0.00  0.00    -0.273 OA
BRANCH  37  40
ATOM     40  CA  PHE A   5      20.554  49.261  35.750  0.00  0.00    +0.153 C 
BRANCH  40  41
ATOM     41  C   PHE A   5      20.231  48.757  34.339  0.00  0.00    +0.241 C 
ATOM     42  N   ARG A   6      19.945  47.450  34.248  0.00  0.00    -0.297 N 
ATOM     43  H   ARG A   6      19.901  46.863  35.105  0.00  0.00    +0.150 HD
ATOM     44  O   PHE A   5      20.191  49.535  33.347  0.00  0.00    -0.273 OA
BRANCH  42  45
ATOM     45  CA  ARG A   6      19.691  46.844  32.908  0.00  0.00    +0.149 C 
BRANCH  45  46
ATOM     46  C   ARG A   6      18.489  47.420  32.157  0.00  0.00    +0.241 C 
ATOM     47  N   GLY A   7      17.482  47.899  32.887  0.00  0.00    -0.296 N 
ATOM     48  H   GLY A   7      17.510  47.820  33.924  0.00  0.00    +0.150 HD
ATOM     49  O   ARG A   6      18.486  47.459  30.912  0.00  0.00    -0.273 OA
BRANCH  47  50
ATOM     50  CA  GLY A   7      16.337  48.535  32.236  0.00  0.00    +0.163 C 
BRANCH  50  51
ATOM     51  C   GLY A   7      16.777  49.823  31.514  0.00  0.00    +0.229 C 
ATOM     52  O   GLY A   7      16.226  50.130  30.473  0.00  0.00    -0.286 OA
ENDBRANCH  50  51
ENDBRANCH  47  50
ENDBRANCH  45  46
BRANCH  45  53
ATOM     53  CB  ARG A   6      19.611  45.315  33.024  0.00  0.00    +0.033 C 
BRANCH  53  54
ATOM     54  CG  ARG A   6      18.330  44.834  33.732  0.00  0.00    +0.045 C 
BRANCH  54  55
ATOM     55  CD  ARG A   6      18.383  43.290  33.919  0.00  0.00    +0.174 C 
BRANCH  55  56
ATOM     56  NE  ARG A   6      19.171  42.902  35.102  0.00  0.00    -0.265 N 
ATOM     57  CZ  ARG A   6      18.757  43.125  36.355  0.00  0.00    +0.342 C 
ATOM     58  NH2 ARG A   6      19.496  42.730  37.387  0.00  0.00    -0.292 N 
ATOM     59 HH21 ARG A   6      19.169  42.906  38.358  0.00  0.00    +0.255 HD
ATOM     60 HH22 ARG A   6      20.401  42.245  37.223  0.00  0.00    +0.255 HD
ATOM     61  NH1 ARG A   6      17.569  43.722  36.582  0.00  0.00    -0.292 N 
ATOM     62 HH11 ARG A   6      17.251  43.893  37.557  0.00  0.00    +0.255 HD
ATOM     63 HH12 ARG A   6      16.971  44.011  35.782  0.00  0.00    +0.255 HD
ATOM     64  HE  ARG A   6      20.089  42.435  34.957  0.00  0.00    +0.259 HD
ENDBRANCH  55  56
ENDBRANCH  54  55
ENDBRANCH  53  54
ENDBRANCH  45  53
ENDBRANCH  42  45
ENDBRANCH  40  41
BRANCH  40  65
ATOM     65  CB  PHE A   5      19.349  50.006  36.342  0.00  0.00    +0.055 C 
BRANCH  65  66
ATOM     66  CG  PHE A   5      18.061  49.257  36.241  0.00  0.00    -0.020 A 
ATOM     67  CD2 PHE A   5      17.921  48.038  36.891  0.00  0.00    -0.004 A 
ATOM     68  CE2 PHE A   5      16.658  47.334  36.836  0.00  0.00    -0.000 A 
ATOM     69  CZ  PHE A   5      15.573  47.879  36.130  0.00  0.00    -0.000 A 
ATOM     70  CE1 PHE A   5      15.711  49.134  35.516  0.00  0.00    -0.000 A 
ATOM     71  CD1 PHE A   5      16.927  49.842  35.612  0.00  0.00    -0.004 A 
ENDBRANCH  65  66
ENDBRANCH  40  65
ENDBRANCH  37  40
ENDBRANCH   1  36
BRANCH   1  72
ATOM     72  CB  VAL A   4      23.596  51.935  34.071  0.00  0.00    +0.027 C 
ATOM     73  CG2 VAL A   4      24.639  53.099  34.019  0.00  0.00    +0.002 C 
ATOM     74  CG1 VAL A   4      23.492  51.278  32.679  0.00  0.00    +0.002 C 
ENDBRANCH   1  72
TORSDOF 29
REMARK  Name = ../refined-set-2016/2xef/2xef_pocket.pdb
REMARK  421 active torsions:
REMARK  status: ('A' for Active; 'I' for Inactive)
REMARK    1  A    between atoms: _1  and  _3
REMARK    2  A    between atoms: _3  and  _4
REMARK    3  A    between atoms: _7  and  _9
REMARK    4  A    between atoms: _9  and  _10
REMARK    5  A    between atoms: _9  and  _12
REMARK    6  A    between atoms: _12  and  _13
REMARK    7  A    between atoms: _19  and  _21
REMARK    8  A    between atoms: _21  and  _22
REMARK    9  A    between atoms: _21  and  _24
REMARK   10  A    between atoms: _24  and  _25
REMARK   11  A    between atoms: _30  and  _31
REMARK   12  A    between atoms: _33  and  _35
REMARK   13  A    between atoms: _35  and  _36
REMARK   14  A    between atoms: _38  and  _40
REMARK   15  A    between atoms: _40  and  _41
REMARK   16  A    between atoms: _40  and  _43
REMARK   17  A    between atoms: _43  and  _44
REMARK   18  A    between atoms: _44  and  _45
REMARK   19  A    between atoms: _45  and  _46
REMARK   20  A    between atoms: _46  and  _47
REMARK   21  A    between atoms: _51  and  _53
REMARK   22  A    between atoms: _53  and  _54
REMARK   23  A    between atoms: _53  and  _56
REMARK   24  A    between atoms: _59  and  _61
REMARK   25  A    between atoms: _61  and  _62
REMARK   26  A    between atoms: _61  and  _64
REMARK   27  A    between atoms: _64  and  _65
REMARK   28  A    between atoms: _71  and  _73
REMARK   29  A    between atoms: _73  and  _74
REMARK   30  A    between atoms: _73  and  _76
REMARK   31  A    between atoms: _76  and  _77
REMARK   32  A    between atoms: _77  and  _78
REMARK   33  A    between atoms: _78  and  _79
REMARK   34  A    between atoms: _88  and  _90
REMARK   35  A    between atoms: _90  and  _91
REMARK   36  A    between atoms: _93  and  _95
REMARK   37  A    between atoms: _95  and  _96
REMARK   38  A    between atoms: _95  and  _98
REMARK   39  A    between atoms: _98  and  _99
REMARK   40  A    between atoms: _99  and  _100
REMARK   41  A    between atoms: _100  and  _101
REMARK   42  A    between atoms: _101  and  _102
REMARK   43  A    between atoms: _106  and  _108
REMARK   44  A    between atoms: _108  and  _109
REMARK   45  A    between atoms: _108  and  _111
REMARK   46  A    between atoms: _111  and  _112
REMARK   47  A    between atoms: _117  and  _118
REMARK   48  A    between atoms: _120  and  _122
REMARK   49  A    between atoms: _122  and  _123
REMARK   50  A    between atoms: _122  and  _125
REMARK   51  A    between atoms: _125  and  _126
REMARK   52  A    between atoms: _126  and  _127
REMARK   53  A    between atoms: _132  and  _134
REMARK   54  A    between atoms: _134  and  _135
REMARK   55  A    between atoms: _134  and  _137
REMARK   56  A    between atoms: _137  and  _138
REMARK   57  A    between atoms: _138  and  _139
REMARK   58  A    between atoms: _139  and  _140
REMARK   59  A    between atoms: _149  and  _151
REMARK   60  A    between atoms: _151  and  _152
REMARK   61  A    between atoms: _154  and  _156
REMARK   62  A    between atoms: _156  and  _157
REMARK   63  A    between atoms: _156  and  _159
REMARK   64  A    between atoms: _159  and  _160
REMARK   65  A    between atoms: _165  and  _167
REMARK   66  A    between atoms: _167  and  _168
REMARK   67  A    between atoms: _167  and  _170
REMARK   68  A    between atoms: _170  and  _171
REMARK   69  A    between atoms: _174  and  _176
REMARK   70  A    between atoms: _176  and  _177
REMARK   71  A    between atoms: _176  and  _179
REMARK   72  A    between atoms: _179  and  _180
REMARK   73  A    between atoms: _183  and  _185
REMARK   74  A    between atoms: _185  and  _186
REMARK   75  A    between atoms: _185  and  _188
REMARK   76  A    between atoms: _188  and  _189
REMARK   77  A    between atoms: _194  and  _196
REMARK   78  A    between atoms: _196  and  _197
REMARK   79  A    between atoms: _196  and  _199
REMARK   80  A    between atoms: _199  and  _200
REMARK   81  A    between atoms: _203  and  _205
REMARK   82  A    between atoms: _205  and  _206
REMARK   83  A    between atoms: _205  and  _208
REMARK   84  A    between atoms: _208  and  _209
REMARK   85  A    between atoms: _214  and  _216
REMARK   86  A    between atoms: _216  and  _217
REMARK   87  A    between atoms: _219  and  _221
REMARK   88  A    between atoms: _221  and  _222
REMARK   89  A    between atoms: _224  and  _226
REMARK   90  A    between atoms: _226  and  _227
REMARK   91  A    between atoms: _226  and  _229
REMARK   92  A    between atoms: _229  and  _230
REMARK   93  A    between atoms: _234  and  ZN_1038
REMARK   94  A    between atoms: _235  and  _237
REMARK   95  A    between atoms: _237  and  _238
REMARK   96  A    between atoms: _237  and  _240
REMARK   97  A    between atoms: _240  and  _241
REMARK   98  A    between atoms: _244  and  _246
REMARK   99  A    between atoms: _246  and  _247
REMARK  100  A    between atoms: _246  and  _249
REMARK  101  A    between atoms: _249  and  _250
REMARK  102  A    between atoms: _260  and  _262
REMARK  103  A    between atoms: _262  and  _263
REMARK  104  A    between atoms: _262  and  _265
REMARK  105  A    between atoms: _265  and  _266
REMARK  106  A    between atoms: _269  and  _271
REMARK  107  A    between atoms: _271  and  _272
REMARK  108  A    between atoms: _271  and  _274
REMARK  109  A    between atoms: _274  and  _275
REMARK  110  A    between atoms: _279  and  _280
REMARK  111  A    between atoms: _285  and  _287
REMARK  112  A    between atoms: _287  and  _288
REMARK  113  A    between atoms: _291  and  _293
REMARK  114  A    between atoms: _293  and  _294
REMARK  115  A    between atoms: _293  and  _296
REMARK  116  A    between atoms: _296  and  _297
REMARK  117  A    between atoms: _297  and  _298
REMARK  118  A    between atoms: _301  and  _303
REMARK  119  A    between atoms: _303  and  _304
REMARK  120  A    between atoms: _303  and  _306
REMARK  121  A    between atoms: _306  and  _307
REMARK  122  A    between atoms: _307  and  _308
REMARK  123  A    between atoms: _308  and  _310
REMARK  124  A    between atoms: _310  and  ZN_1037
REMARK  125  A    between atoms: _311  and  _313
REMARK  126  A    between atoms: _313  and  _314
REMARK  127  A    between atoms: _313  and  _316
REMARK  128  A    between atoms: _316  and  _317
REMARK  129  A    between atoms: _323  and  _325
REMARK  130  A    between atoms: _325  and  _326
REMARK  131  A    between atoms: _328  and  _330
REMARK  132  A    between atoms: _330  and  _331
REMARK  133  A    between atoms: _330  and  _333
REMARK  134  A    between atoms: _333  and  _334
REMARK  135  A    between atoms: _337  and  _339
REMARK  136  A    between atoms: _339  and  _340
REMARK  137  A    between atoms: _339  and  _342
REMARK  138  A    between atoms: _342  and  _343
REMARK  139  A    between atoms: _346  and  _348
REMARK  140  A    between atoms: _348  and  _349
REMARK  141  A    between atoms: _348  and  _351
REMARK  142  A    between atoms: _351  and  _352
REMARK  143  A    between atoms: _357  and  _359
REMARK  144  A    between atoms: _359  and  _360
REMARK  145  A    between atoms: _359  and  _362
REMARK  146  A    between atoms: _362  and  _363
REMARK  147  A    between atoms: _363  and  _365
REMARK  148  A    between atoms: _365  and  ZN_1038
REMARK  149  A    between atoms: _366  and  _368
REMARK  150  A    between atoms: _368  and  _369
REMARK  151  A    between atoms: _368  and  _371
REMARK  152  A    between atoms: _371  and  _372
REMARK  153  A    between atoms: _374  and  _376
REMARK  154  A    between atoms: _376  and  _377
REMARK  155  A    between atoms: _376  and  _379
REMARK  156  A    between atoms: _379  and  _380
REMARK  157  A    between atoms: _382  and  _384
REMARK  158  A    between atoms: _384  and  _385
REMARK  159  A    between atoms: _384  and  _387
REMARK  160  A    between atoms: _387  and  _388
REMARK  161  A    between atoms: _391  and  _393
REMARK  162  A    between atoms: _393  and  _394
REMARK  163  A    between atoms: _393  and  _396
REMARK  164  A    between atoms: _396  and  _397
REMARK  165  A    between atoms: _397  and  _398
REMARK  166  A    between atoms: _401  and  _403
REMARK  167  A    between atoms: _403  and  _404
REMARK  168  A    between atoms: _403  and  _406
REMARK  169  A    between atoms: _406  and  _407
REMARK  170  A    between atoms: _412  and  _413
REMARK  171  A    between atoms: _415  and  _417
REMARK  172  A    between atoms: _417  and  _418
REMARK  173  A    between atoms: _417  and  _420
REMARK  174  A    between atoms: _420  and  _421
REMARK  175  A    between atoms: _424  and  _426
REMARK  176  A    between atoms: _426  and  _427
REMARK  177  A    between atoms: _426  and  _429
REMARK  178  A    between atoms: _429  and  _430
REMARK  179  A    between atoms: _433  and  _435
REMARK  180  A    between atoms: _435  and  _436
REMARK  181  A    between atoms: _435  and  _438
REMARK  182  A    between atoms: _438  and  _439
REMARK  183  A    between atoms: _439  and  _440
REMARK  184  A    between atoms: _440  and  _441
REMARK  185  A    between atoms: _450  and  _452
REMARK  186  A    between atoms: _452  and  _453
REMARK  187  A    between atoms: _452  and  _455
REMARK  188  A    between atoms: _458  and  _460
REMARK  189  A    between atoms: _460  and  _461
REMARK  190  A    between atoms: _460  and  _463
REMARK  191  A    between atoms: _463  and  _464
REMARK  192  A    between atoms: _467  and  _469
REMARK  193  A    between atoms: _469  and  _470
REMARK  194  A    between atoms: _469  and  _472
REMARK  195  A    between atoms: _474  and  _476
REMARK  196  A    between atoms: _476  and  _477
REMARK  197  A    between atoms: _476  and  _479
REMARK  198  A    between atoms: _479  and  _480
REMARK  199  A    between atoms: _490  and  _492
REMARK  200  A    between atoms: _492  and  _493
REMARK  201  A    between atoms: _492  and  _495
REMARK  202  A    between atoms: _495  and  _496
REMARK  203  A    between atoms: _496  and  _497
REMARK  204  A    between atoms: _497  and  _498
REMARK  205  A    between atoms: _498  and  _499
REMARK  206  A    between atoms: _503  and  _505
REMARK  207  A    between atoms: _505  and  _506
REMARK  208  A    between atoms: _505  and  _508
REMARK  209  A    between atoms: _508  and  _509
REMARK  210  A    between atoms: _512  and  _513
REMARK  211  A    between atoms: _519  and  _520
REMARK  212  A    between atoms: _525  and  _527
REMARK  213  A    between atoms: _527  and  _528
REMARK  214  A    between atoms: _527  and  _530
REMARK  215  A    between atoms: _530  and  _531
REMARK  216  A    between atoms: _531  and  _532
REMARK  217  A    between atoms: _535  and  _537
REMARK  218  A    between atoms: _537  and  _538
REMARK  219  A    between atoms: _537  and  _540
REMARK  220  A    between atoms: _540  and  _541
REMARK  221  A    between atoms: _541  and  _542
REMARK  222  A    between atoms: _542  and  _543
REMARK  223  A    between atoms: _552  and  _554
REMARK  224  A    between atoms: _554  and  _555
REMARK  225  A    between atoms: _554  and  _557
REMARK  226  A    between atoms: _557  and  _558
REMARK  227  A    between atoms: _561  and  _563
REMARK  228  A    between atoms: _563  and  _564
REMARK  229  A    between atoms: _563  and  _566
REMARK  230  A    between atoms: _566  and  _567
REMARK  231  A    between atoms: _569  and  _571
REMARK  232  A    between atoms: _571  and  _572
REMARK  233  A    between atoms: _571  and  _574
REMARK  234  A    between atoms: _574  and  _575
REMARK  235  A    between atoms: _575  and  _576
REMARK  236  A    between atoms: _576  and  _577
REMARK  237  A    between atoms: _577  and  _578
REMARK  238  A    between atoms: _582  and  _584
REMARK  239  A    between atoms: _584  and  _585
REMARK  240  A    between atoms: _584  and  _587
REMARK  241  A    between atoms: _587  and  _588
REMARK  242  A    between atoms: _591  and  _593
REMARK  243  A    between atoms: _593  and  _594
REMARK  244  A    between atoms: _596  and  _598
REMARK  245  A    between atoms: _598  and  _599
REMARK  246  A    between atoms: _598  and  _601
REMARK  247  A    between atoms: _601  and  _602
REMARK  248  A    between atoms: _604  and  _606
REMARK  249  A    between atoms: _606  and  _607
REMARK  250  A    between atoms: _609  and  _611
REMARK  251  A    between atoms: _611  and  _612
REMARK  252  A    between atoms: _611  and  _614
REMARK  253  A    between atoms: _614  and  _615
REMARK  254  A    between atoms: _620  and  _622
REMARK  255  A    between atoms: _622  and  _623
REMARK  256  A    between atoms: _622  and  _625
REMARK  257  A    between atoms: _625  and  _626
REMARK  258  A    between atoms: _629  and  _631
REMARK  259  A    between atoms: _631  and  _632
REMARK  260  A    between atoms: _631  and  _634
REMARK  261  A    between atoms: _634  and  _635
REMARK  262  A    between atoms: _641  and  _643
REMARK  263  A    between atoms: _643  and  _644
REMARK  264  A    between atoms: _643  and  _646
REMARK  265  A    between atoms: _646  and  _647
REMARK  266  A    between atoms: _647  and  _648
REMARK  267  A    between atoms: _651  and  _653
REMARK  268  A    between atoms: _653  and  _654
REMARK  269  A    between atoms: _653  and  _656
REMARK  270  A    between atoms: _656  and  _657
REMARK  271  A    between atoms: _657  and  _658
REMARK  272  A    between atoms: _663  and  _665
REMARK  273  A    between atoms: _665  and  _666
REMARK  274  A    between atoms: _665  and  _668
REMARK  275  A    between atoms: _668  and  _669
REMARK  276  A    between atoms: _669  and  _670
REMARK  277  A    between atoms: _670  and  _671
REMARK  278  A    between atoms: _680  and  _682
REMARK  279  A    between atoms: _682  and  _683
REMARK  280  A    between atoms: _682  and  _685
REMARK  281  A    between atoms: _685  and  _686
REMARK  282  A    between atoms: _686  and  _687
REMARK  283  A    between atoms: _687  and  _688
REMARK  284  A    between atoms: _697  and  _699
REMARK  285  A    between atoms: _699  and  _700
REMARK  286  A    between atoms: _699  and  _702
REMARK  287  A    between atoms: _702  and  _703
REMARK  288  A    between atoms: _708  and  _709
REMARK  289  A    between atoms: _711  and  _713
REMARK  290  A    between atoms: _713  and  _714
REMARK  291  A    between atoms: _713  and  _716
REMARK  292  A    between atoms: _716  and  _717
REMARK  293  A    between atoms: _720  and  _722
REMARK  294  A    between atoms: _722  and  _723
REMARK  295  A    between atoms: _722  and  _725
REMARK  296  A    between atoms: _725  and  _726
REMARK  297  A    between atoms: _726  and  _727
REMARK  298  A    between atoms: _727  and  _728
REMARK  299  A    between atoms: _728  and  _729
REMARK  300  A    between atoms: _733  and  _735
REMARK  301  A    between atoms: _735  and  _736
REMARK  302  A    between atoms: _735  and  _738
REMARK  303  A    between atoms: _738  and  _739
REMARK  304  A    between atoms: _744  and  _746
REMARK  305  A    between atoms: _746  and  _747
REMARK  306  A    between atoms: _746  and  _749
REMARK  307  A    between atoms: _749  and  _750
REMARK  308  A    between atoms: _760  and  _762
REMARK  309  A    between atoms: _762  and  _763
REMARK  310  A    between atoms: _762  and  _765
REMARK  311  A    between atoms: _765  and  _766
REMARK  312  A    between atoms: _766  and  _767
REMARK  313  A    between atoms: _770  and  _772
REMARK  314  A    between atoms: _772  and  _773
REMARK  315  A    between atoms: _772  and  _775
REMARK  316  A    between atoms: _775  and  _776
REMARK  317  A    between atoms: _779  and  _781
REMARK  318  A    between atoms: _781  and  _782
REMARK  319  A    between atoms: _781  and  _784
REMARK  320  A    between atoms: _784  and  _785
REMARK  321  A    between atoms: _790  and  _792
REMARK  322  A    between atoms: _792  and  _793
REMARK  323  A    between atoms: _792  and  _795
REMARK  324  A    between atoms: _795  and  _796
REMARK  325  A    between atoms: _802  and  _804
REMARK  326  A    between atoms: _804  and  _805
REMARK  327  A    between atoms: _804  and  _807
REMARK  328  A    between atoms: _807  and  _808
REMARK  329  A    between atoms: _810  and  _812
REMARK  330  A    between atoms: _812  and  _813
REMARK  331  A    between atoms: _815  and  _817
REMARK  332  A    between atoms: _817  and  _818
REMARK  333  A    between atoms: _817  and  _820
REMARK  334  A    between atoms: _820  and  _821
REMARK  335  A    between atoms: _826  and  _827
REMARK  336  A    between atoms: _829  and  _831
REMARK  337  A    between atoms: _831  and  _832
REMARK  338  A    between atoms: _831  and  _834
REMARK  339  A    between atoms: _834  and  _835
REMARK  340  A    between atoms: _840  and  _841
REMARK  341  A    between atoms: _843  and  _845
REMARK  342  A    between atoms: _845  and  _846
REMARK  343  A    between atoms: _845  and  _848
REMARK  344  A    between atoms: _848  and  _849
REMARK  345  A    between atoms: _853  and  ZN_1037
REMARK  346  A    between atoms: _854  and  _856
REMARK  347  A    between atoms: _856  and  _857
REMARK  348  A    between atoms: _856  and  _859
REMARK  349  A    between atoms: _859  and  _860
REMARK  350  A    between atoms: _860  and  _861
REMARK  351  A    between atoms: _864  and  _866
REMARK  352  A    between atoms: _866  and  _867
REMARK  353  A    between atoms: _866  and  _869
REMARK  354  A    between atoms: _869  and  _870
REMARK  355  A    between atoms: _870  and  _871
REMARK  356  A    between atoms: _871  and  _872
REMARK  357  A    between atoms: _881  and  _883
REMARK  358  A    between atoms: _883  and  _884
REMARK  359  A    between atoms: _883  and  _886
REMARK  360  A    between atoms: _886  and  _887
REMARK  361  A    between atoms: _887  and  _888
REMARK  362  A    between atoms: _888  and  _889
REMARK  363  A    between atoms: _889  and  _890
REMARK  364  A    between atoms: _894  and  _896
REMARK  365  A    between atoms: _896  and  _897
REMARK  366  A    between atoms: _896  and  _899
REMARK  367  A    between atoms: _899  and  _900
REMARK  368  A    between atoms: _905  and  _906
REMARK  369  A    between atoms: _908  and  _910
REMARK  370  A    between atoms: _910  and  _911
REMARK  371  A    between atoms: _910  and  _913
REMARK  372  A    between atoms: _913  and  _914
REMARK  373  A    between atoms: _914  and  _915
REMARK  374  A    between atoms: _915  and  _916
REMARK  375  A    between atoms: _916  and  _917
REMARK  376  A    between atoms: _921  and  _923
REMARK  377  A    between atoms: _923  and  _924
REMARK  378  A    between atoms: _923  and  _926
REMARK  379  A    between atoms: _926  and  _927
REMARK  380  A    between atoms: _932  and  _933
REMARK  381  A    between atoms: _935  and  _937
REMARK  382  A    between atoms: _937  and  _938
REMARK  383  A    between atoms: _937  and  _940
REMARK  384  A    between atoms: _940  and  _941
REMARK  385  A    between atoms: _946  and  _947
REMARK  386  A    between atoms: _949  and  _951
REMARK  387  A    between atoms: _951  and  _952
REMARK  388  A    between atoms: _956  and  _957
REMARK  389  A    between atoms: _962  and  _964
REMARK  390  A    between atoms: _964  and  _965
REMARK  391  A    between atoms: _964  and  _967
REMARK  392  A    between atoms: _967  and  _968
REMARK  393  A    between atoms: _970  and  _972
REMARK  394  A    between atoms: _972  and  _973
REMARK  395  A    between atoms: _972  and  _975
REMARK  396  A    between atoms: _975  and  _976
REMARK  397  A    between atoms: _981  and  _983
REMARK  398  A    between atoms: _983  and  _984
REMARK  399  A    between atoms: _983  and  _986
REMARK  400  A    between atoms: _986  and  _987
REMARK  401  A    between atoms: _987  and  _988
REMARK  402  A    between atoms: _988  and  _989
REMARK  403  A    between atoms: _989  and  _990
REMARK  404  A    between atoms: _994  and  _996
REMARK  405  A    between atoms: _996  and  _997
REMARK  406  A    between atoms: _996  and  _999
REMARK  407  A    between atoms: _999  and  _1000
REMARK  408  A    between atoms: _1005  and  _1006
REMARK  409  A    between atoms: _1008  and  _1010
REMARK  410  A    between atoms: _1010  and  _1011
REMARK  411  A    between atoms: _1014  and  _1016
REMARK  412  A    between atoms: _1016  and  _1017
REMARK  413  A    between atoms: _1019  and  _1021
REMARK  414  A    between atoms: _1021  and  _1022
REMARK  415  A    between atoms: _1021  and  _1024
REMARK  416  A    between atoms: _1024  and  _1025
REMARK  417  A    between atoms: _1025  and  _1026
REMARK  418  A    between atoms: _1029  and  _1031
REMARK  419  A    between atoms: _1031  and  _1032
REMARK  420  A    between atoms: _1031  and  _1034
REMARK  421  A    between atoms: _1034  and  _1035
REMARK                            x       y       z     vdW  Elec       q    Type
REMARK                         _______ _______ _______ _____ _____    ______ ____
ROOT
ATOM      1  CG  LYS A   1      22.244  48.575  30.194  0.00  0.00    -0.000 C 
ENDROOT
BRANCH   1   2
ATOM      2  CB  LYS A   1      21.094  48.457  29.177  0.00  0.00    +0.025 C 
BRANCH   2   3
ATOM      3  CA  LYS A   1      20.344  49.759  28.893  0.00  0.00    +0.133 C 
BRANCH   3   4
ATOM      4  N   LYS A   1      19.721  50.270  30.131  0.00  0.00    -0.239 NA
ATOM      5  H   LYS A   1      19.875  49.781  31.036  0.00  0.00    +0.142 HD
ENDBRANCH   3   4
BRANCH   3   6
ATOM      6  C   LYS A   1      19.330  49.490  27.802  0.00  0.00    +0.224 C 
ATOM      7  O   LYS A   1      19.561  49.830  26.607  0.00  0.00    -0.287 OA
ENDBRANCH   3   6
ENDBRANCH   2   3
ENDBRANCH   1   2
BRANCH   1   8
ATOM      8  CD  LYS A   1      22.809  47.194  30.506  0.00  0.00    -0.024 C 
BRANCH   8   9
ATOM      9  CE  LYS A   1      23.807  47.218  31.672  0.00  0.00    -0.086 C 
BRANCH   9  10
ATOM     10  NZ  LYS A   1      25.248  47.533  31.339  0.00  0.00    +0.380 N 
ATOM     11  HZ1 LYS A   1      25.815  47.518  32.211  0.00  0.00    -0.089 HD
ATOM     12  HZ2 LYS A   1      25.304  48.476  30.904  0.00  0.00    -0.089 HD
ATOM     13  HZ3 LYS A   1      25.612  46.821  30.674  0.00  0.00    -0.089 HD
ENDBRANCH   9  10
ENDBRANCH   8   9
ENDBRANCH   1   8
TORSDOF 7
REMARK  Name = ../refined-set-2016/2xef/2xef_pocket.pdb
REMARK  421 active torsions:
REMARK  status: ('A' for Active; 'I' for Inactive)
REMARK    1  A    between atoms: _1  and  _3
REMARK    2  A    between atoms: _3  and  _4
REMARK    3  A    between atoms: _7  and  _9
REMARK    4  A    between atoms: _9  and  _10
REMARK    5  A    between atoms: _9  and  _12
REMARK    6  A    between atoms: _12  and  _13
REMARK    7  A    between atoms: _19  and  _21
REMARK    8  A    between atoms: _21  and  _22
REMARK    9  A    between atoms: _21  and  _24
REMARK   10  A    between atoms: _24  and  _25
REMARK   11  A    between atoms: _30  and  _31
REMARK   12  A    between atoms: _33  and  _35
REMARK   13  A    between atoms: _35  and  _36
REMARK   14  A    between atoms: _38  and  _40
REMARK   15  A    between atoms: _40  and  _41
REMARK   16  A    between atoms: _40  and  _43
REMARK   17  A    between atoms: _43  and  _44
REMARK   18  A    between atoms: _44  and  _45
REMARK   19  A    between atoms: _45  and  _46
REMARK   20  A    between atoms: _46  and  _47
REMARK   21  A    between atoms: _51  and  _53
REMARK   22  A    between atoms: _53  and  _54
REMARK   23  A    between atoms: _53  and  _56
REMARK   24  A    between atoms: _59  and  _61
REMARK   25  A    between atoms: _61  and  _62
REMARK   26  A    between atoms: _61  and  _64
REMARK   27  A    between atoms: _64  and  _65
REMARK   28  A    between atoms: _71  and  _73
REMARK   29  A    between atoms: _73  and  _74
REMARK   30  A    between atoms: _73  and  _76
REMARK   31  A    between atoms: _76  and  _77
REMARK   32  A    between atoms: _77  and  _78
REMARK   33  A    between atoms: _78  and  _79
REMARK   34  A    between atoms: _88  and  _90
REMARK   35  A    between atoms: _90  and  _91
REMARK   36  A    between atoms: _93  and  _95
REMARK   37  A    between atoms: _95  and  _96
REMARK   38  A    between atoms: _95  and  _98
REMARK   39  A    between atoms: _98  and  _99
REMARK   40  A    between atoms: _99  and  _100
REMARK   41  A    between atoms: _100  and  _101
REMARK   42  A    between atoms: _101  and  _102
REMARK   43  A    between atoms: _106  and  _108
REMARK   44  A    between atoms: _108  and  _109
REMARK   45  A    between atoms: _108  and  _111
REMARK   46  A    between atoms: _111  and  _112
REMARK   47  A    between atoms: _117  and  _118
REMARK   48  A    between atoms: _120  and  _122
REMARK   49  A    between atoms: _122  and  _123
REMARK   50  A    between atoms: _122  and  _125
REMARK   51  A    between atoms: _125  and  _126
REMARK   52  A    between atoms: _126  and  _127
REMARK   53  A    between atoms: _132  and  _134
REMARK   54  A    between atoms: _134  and  _135
REMARK   55  A    between atoms: _134  and  _137
REMARK   56  A    between atoms: _137  and  _138
REMARK   57  A    between atoms: _138  and  _139
REMARK   58  A    between atoms: _139  and  _140
REMARK   59  A    between atoms: _149  and  _151
REMARK   60  A    between atoms: _151  and  _152
REMARK   61  A    between atoms: _154  and  _156
REMARK   62  A    between atoms: _156  and  _157
REMARK   63  A    between atoms: _156  and  _159
REMARK   64  A    between atoms: _159  and  _160
REMARK   65  A    between atoms: _165  and  _167
REMARK   66  A    between atoms: _167  and  _168
REMARK   67  A    between atoms: _167  and  _170
REMARK   68  A    between atoms: _170  and  _171
REMARK   69  A    between atoms: _174  and  _176
REMARK   70  A    between atoms: _176  and  _177
REMARK   71  A    between atoms: _176  and  _179
REMARK   72  A    between atoms: _179  and  _180
REMARK   73  A    between atoms: _183  and  _185
REMARK   74  A    between atoms: _185  and  _186
REMARK   75  A    between atoms: _185  and  _188
REMARK   76  A    between atoms: _188  and  _189
REMARK   77  A    between atoms: _194  and  _196
REMARK   78  A    between atoms: _196  and  _197
REMARK   79  A    between atoms: _196  and  _199
REMARK   80  A    between atoms: _199  and  _200
REMARK   81  A    between atoms: _203  and  _205
REMARK   82  A    between atoms: _205  and  _206
REMARK   83  A    between atoms: _205  and  _208
REMARK   84  A    between atoms: _208  and  _209
REMARK   85  A    between atoms: _214  and  _216
REMARK   86  A    between atoms: _216  and  _217
REMARK   87  A    between atoms: _219  and  _221
REMARK   88  A    between atoms: _221  and  _222
REMARK   89  A    between atoms: _224  and  _226
REMARK   90  A    between atoms: _226  and  _227
REMARK   91  A    between atoms: _226  and  _229
REMARK   92  A    between atoms: _229  and  _230
REMARK   93  A    between atoms: _234  and  ZN_1038
REMARK   94  A    between atoms: _235  and  _237
REMARK   95  A    between atoms: _237  and  _238
REMARK   96  A    between atoms: _237  and  _240
REMARK   97  A    between atoms: _240  and  _241
REMARK   98  A    between atoms: _244  and  _246
REMARK   99  A    between atoms: _246  and  _247
REMARK  100  A    between atoms: _246  and  _249
REMARK  101  A    between atoms: _249  and  _250
REMARK  102  A    between atoms: _260  and  _262
REMARK  103  A    between atoms: _262  and  _263
REMARK  104  A    between atoms: _262  and  _265
REMARK  105  A    between atoms: _265  and  _266
REMARK  106  A    between atoms: _269  and  _271
REMARK  107  A    between atoms: _271  and  _272
REMARK  108  A    between atoms: _271  and  _274
REMARK  109  A    between atoms: _274  and  _275
REMARK  110  A    between atoms: _279  and  _280
REMARK  111  A    between atoms: _285  and  _287
REMARK  112  A    between atoms: _287  and  _288
REMARK  113  A    between atoms: _291  and  _293
REMARK  114  A    between atoms: _293  and  _294
REMARK  115  A    between atoms: _293  and  _296
REMARK  116  A    between atoms: _296  and  _297
REMARK  117  A    between atoms: _297  and  _298
REMARK  118  A    between atoms: _301  and  _303
REMARK  119  A    between atoms: _303  and  _304
REMARK  120  A    between atoms: _303  and  _306
REMARK  121  A    between atoms: _306  and  _307
REMARK  122  A    between atoms: _307  and  _308
REMARK  123  A    between atoms: _308  and  _310
REMARK  124  A    between atoms: _310  and  ZN_1037
REMARK  125  A    between atoms: _311  and  _313
REMARK  126  A    between atoms: _313  and  _314
REMARK  127  A    between atoms: _313  and  _316
REMARK  128  A    between atoms: _316  and  _317
REMARK  129  A    between atoms: _323  and  _325
REMARK  130  A    between atoms: _325  and  _326
REMARK  131  A    between atoms: _328  and  _330
REMARK  132  A    between atoms: _330  and  _331
REMARK  133  A    between atoms: _330  and  _333
REMARK  134  A    between atoms: _333  and  _334
REMARK  135  A    between atoms: _337  and  _339
REMARK  136  A    between atoms: _339  and  _340
REMARK  137  A    between atoms: _339  and  _342
REMARK  138  A    between atoms: _342  and  _343
REMARK  139  A    between atoms: _346  and  _348
REMARK  140  A    between atoms: _348  and  _349
REMARK  141  A    between atoms: _348  and  _351
REMARK  142  A    between atoms: _351  and  _352
REMARK  143  A    between atoms: _357  and  _359
REMARK  144  A    between atoms: _359  and  _360
REMARK  145  A    between atoms: _359  and  _362
REMARK  146  A    between atoms: _362  and  _363
REMARK  147  A    between atoms: _363  and  _365
REMARK  148  A    between atoms: _365  and  ZN_1038
REMARK  149  A    between atoms: _366  and  _368
REMARK  150  A    between atoms: _368  and  _369
REMARK  151  A    between atoms: _368  and  _371
REMARK  152  A    between atoms: _371  and  _372
REMARK  153  A    between atoms: _374  and  _376
REMARK  154  A    between atoms: _376  and  _377
REMARK  155  A    between atoms: _376  and  _379
REMARK  156  A    between atoms: _379  and  _380
REMARK  157  A    between atoms: _382  and  _384
REMARK  158  A    between atoms: _384  and  _385
REMARK  159  A    between atoms: _384  and  _387
REMARK  160  A    between atoms: _387  and  _388
REMARK  161  A    between atoms: _391  and  _393
REMARK  162  A    between atoms: _393  and  _394
REMARK  163  A    between atoms: _393  and  _396
REMARK  164  A    between atoms: _396  and  _397
REMARK  165  A    between atoms: _397  and  _398
REMARK  166  A    between atoms: _401  and  _403
REMARK  167  A    between atoms: _403  and  _404
REMARK  168  A    between atoms: _403  and  _406
REMARK  169  A    between atoms: _406  and  _407
REMARK  170  A    between atoms: _412  and  _413
REMARK  171  A    between atoms: _415  and  _417
REMARK  172  A    between atoms: _417  and  _418
REMARK  173  A    between atoms: _417  and  _420
REMARK  174  A    between atoms: _420  and  _421
REMARK  175  A    between atoms: _424  and  _426
REMARK  176  A    between atoms: _426  and  _427
REMARK  177  A    between atoms: _426  and  _429
REMARK  178  A    between atoms: _429  and  _430
REMARK  179  A    between atoms: _433  and  _435
REMARK  180  A    between atoms: _435  and  _436
REMARK  181  A    between atoms: _435  and  _438
REMARK  182  A    between atoms: _438  and  _439
REMARK  183  A    between atoms: _439  and  _440
REMARK  184  A    between atoms: _440  and  _441
REMARK  185  A    between atoms: _450  and  _452
REMARK  186  A    between atoms: _452  and  _453
REMARK  187  A    between atoms: _452  and  _455
REMARK  188  A    between atoms: _458  and  _460
REMARK  189  A    between atoms: _460  and  _461
REMARK  190  A    between atoms: _460  and  _463
REMARK  191  A    between atoms: _463  and  _464
REMARK  192  A    between atoms: _467  and  _469
REMARK  193  A    between atoms: _469  and  _470
REMARK  194  A    between atoms: _469  and  _472
REMARK  195  A    between atoms: _474  and  _476
REMARK  196  A    between atoms: _476  and  _477
REMARK  197  A    between atoms: _476  and  _479
REMARK  198  A    between atoms: _479  and  _480
REMARK  199  A    between atoms: _490  and  _492
REMARK  200  A    between atoms: _492  and  _493
REMARK  201  A    between atoms: _492  and  _495
REMARK  202  A    between atoms: _495  and  _496
REMARK  203  A    between atoms: _496  and  _497
REMARK  204  A    between atoms: _497  and  _498
REMARK  205  A    between atoms: _498  and  _499
REMARK  206  A    between atoms: _503  and  _505
REMARK  207  A    between atoms: _505  and  _506
REMARK  208  A    between atoms: _505  and  _508
REMARK  209  A    between atoms: _508  and  _509
REMARK  210  A    between atoms: _512  and  _513
REMARK  211  A    between atoms: _519  and  _520
REMARK  212  A    between atoms: _525  and  _527
REMARK  213  A    between atoms: _527  and  _528
REMARK  214  A    between atoms: _527  and  _530
REMARK  215  A    between atoms: _530  and  _531
REMARK  216  A    between atoms: _531  and  _532
REMARK  217  A    between atoms: _535  and  _537
REMARK  218  A    between atoms: _537  and  _538
REMARK  219  A    between atoms: _537  and  _540
REMARK  220  A    between atoms: _540  and  _541
REMARK  221  A    between atoms: _541  and  _542
REMARK  222  A    between atoms: _542  and  _543
REMARK  223  A    between atoms: _552  and  _554
REMARK  224  A    between atoms: _554  and  _555
REMARK  225  A    between atoms: _554  and  _557
REMARK  226  A    between atoms: _557  and  _558
REMARK  227  A    between atoms: _561  and  _563
REMARK  228  A    between atoms: _563  and  _564
REMARK  229  A    between atoms: _563  and  _566
REMARK  230  A    between atoms: _566  and  _567
REMARK  231  A    between atoms: _569  and  _571
REMARK  232  A    between atoms: _571  and  _572
REMARK  233  A    between atoms: _571  and  _574
REMARK  234  A    between atoms: _574  and  _575
REMARK  235  A    between atoms: _575  and  _576
REMARK  236  A    between atoms: _576  and  _577
REMARK  237  A    between atoms: _577  and  _578
REMARK  238  A    between atoms: _582  and  _584
REMARK  239  A    between atoms: _584  and  _585
REMARK  240  A    between atoms: _584  and  _587
REMARK  241  A    between atoms: _587  and  _588
REMARK  242  A    between atoms: _591  and  _593
REMARK  243  A    between atoms: _593  and  _594
REMARK  244  A    between atoms: _596  and  _598
REMARK  245  A    between atoms: _598  and  _599
REMARK  246  A    between atoms: _598  and  _601
REMARK  247  A    between atoms: _601  and  _602
REMARK  248  A    between atoms: _604  and  _606
REMARK  249  A    between atoms: _606  and  _607
REMARK  250  A    between atoms: _609  and  _611
REMARK  251  A    between atoms: _611  and  _612
REMARK  252  A    between atoms: _611  and  _614
REMARK  253  A    between atoms: _614  and  _615
REMARK  254  A    between atoms: _620  and  _622
REMARK  255  A    between atoms: _622  and  _623
REMARK  256  A    between atoms: _622  and  _625
REMARK  257  A    between atoms: _625  and  _626
REMARK  258  A    between atoms: _629  and  _631
REMARK  259  A    between atoms: _631  and  _632
REMARK  260  A    between atoms: _631  and  _634
REMARK  261  A    between atoms: _634  and  _635
REMARK  262  A    between atoms: _641  and  _643
REMARK  263  A    between atoms: _643  and  _644
REMARK  264  A    between atoms: _643  and  _646
REMARK  265  A    between atoms: _646  and  _647
REMARK  266  A    between atoms: _647  and  _648
REMARK  267  A    between atoms: _651  and  _653
REMARK  268  A    between atoms: _653  and  _654
REMARK  269  A    between atoms: _653  and  _656
REMARK  270  A    between atoms: _656  and  _657
REMARK  271  A    between atoms: _657  and  _658
REMARK  272  A    between atoms: _663  and  _665
REMARK  273  A    between atoms: _665  and  _666
REMARK  274  A    between atoms: _665  and  _668
REMARK  275  A    between atoms: _668  and  _669
REMARK  276  A    between atoms: _669  and  _670
REMARK  277  A    between atoms: _670  and  _671
REMARK  278  A    between atoms: _680  and  _682
REMARK  279  A    between atoms: _682  and  _683
REMARK  280  A    between atoms: _682  and  _685
REMARK  281  A    between atoms: _685  and  _686
REMARK  282  A    between atoms: _686  and  _687
REMARK  283  A    between atoms: _687  and  _688
REMARK  284  A    between atoms: _697  and  _699
REMARK  285  A    between atoms: _699  and  _700
REMARK  286  A    between atoms: _699  and  _702
REMARK  287  A    between atoms: _702  and  _703
REMARK  288  A    between atoms: _708  and  _709
REMARK  289  A    between atoms: _711  and  _713
REMARK  290  A    between atoms: _713  and  _714
REMARK  291  A    between atoms: _713  and  _716
REMARK  292  A    between atoms: _716  and  _717
REMARK  293  A    between atoms: _720  and  _722
REMARK  294  A    between atoms: _722  and  _723
REMARK  295  A    between atoms: _722  and  _725
REMARK  296  A    between atoms: _725  and  _726
REMARK  297  A    between atoms: _726  and  _727
REMARK  298  A    between atoms: _727  and  _728
REMARK  299  A    between atoms: _728  and  _729
REMARK  300  A    between atoms: _733  and  _735
REMARK  301  A    between atoms: _735  and  _736
REMARK  302  A    between atoms: _735  and  _738
REMARK  303  A    between atoms: _738  and  _739
REMARK  304  A    between atoms: _744  and  _746
REMARK  305  A    between atoms: _746  and  _747
REMARK  306  A    between atoms: _746  and  _749
REMARK  307  A    between atoms: _749  and  _750
REMARK  308  A    between atoms: _760  and  _762
REMARK  309  A    between atoms: _762  and  _763
REMARK  310  A    between atoms: _762  and  _765
REMARK  311  A    between atoms: _765  and  _766
REMARK  312  A    between atoms: _766  and  _767
REMARK  313  A    between atoms: _770  and  _772
REMARK  314  A    between atoms: _772  and  _773
REMARK  315  A    between atoms: _772  and  _775
REMARK  316  A    between atoms: _775  and  _776
REMARK  317  A    between atoms: _779  and  _781
REMARK  318  A    between atoms: _781  and  _782
REMARK  319  A    between atoms: _781  and  _784
REMARK  320  A    between atoms: _784  and  _785
REMARK  321  A    between atoms: _790  and  _792
REMARK  322  A    between atoms: _792  and  _793
REMARK  323  A    between atoms: _792  and  _795
REMARK  324  A    between atoms: _795  and  _796
REMARK  325  A    between atoms: _802  and  _804
REMARK  326  A    between atoms: _804  and  _805
REMARK  327  A    between atoms: _804  and  _807
REMARK  328  A    between atoms: _807  and  _808
REMARK  329  A    between atoms: _810  and  _812
REMARK  330  A    between atoms: _812  and  _813
REMARK  331  A    between atoms: _815  and  _817
REMARK  332  A    between atoms: _817  and  _818
REMARK  333  A    between atoms: _817  and  _820
REMARK  334  A    between atoms: _820  and  _821
REMARK  335  A    between atoms: _826  and  _827
REMARK  336  A    between atoms: _829  and  _831
REMARK  337  A    between atoms: _831  and  _832
REMARK  338  A    between atoms: _831  and  _834
REMARK  339  A    between atoms: _834  and  _835
REMARK  340  A    between atoms: _840  and  _841
REMARK  341  A    between atoms: _843  and  _845
REMARK  342  A    between atoms: _845  and  _846
REMARK  343  A    between atoms: _845  and  _848
REMARK  344  A    between atoms: _848  and  _849
REMARK  345  A    between atoms: _853  and  ZN_1037
REMARK  346  A    between atoms: _854  and  _856
REMARK  347  A    between atoms: _856  and  _857
REMARK  348  A    between atoms: _856  and  _859
REMARK  349  A    between atoms: _859  and  _860
REMARK  350  A    between atoms: _860  and  _861
REMARK  351  A    between atoms: _864  and  _866
REMARK  352  A    between atoms: _866  and  _867
REMARK  353  A    between atoms: _866  and  _869
REMARK  354  A    between atoms: _869  and  _870
REMARK  355  A    between atoms: _870  and  _871
REMARK  356  A    between atoms: _871  and  _872
REMARK  357  A    between atoms: _881  and  _883
REMARK  358  A    between atoms: _883  and  _884
REMARK  359  A    between atoms: _883  and  _886
REMARK  360  A    between atoms: _886  and  _887
REMARK  361  A    between atoms: _887  and  _888
REMARK  362  A    between atoms: _888  and  _889
REMARK  363  A    between atoms: _889  and  _890
REMARK  364  A    between atoms: _894  and  _896
REMARK  365  A    between atoms: _896  and  _897
REMARK  366  A    between atoms: _896  and  _899
REMARK  367  A    between atoms: _899  and  _900
REMARK  368  A    between atoms: _905  and  _906
REMARK  369  A    between atoms: _908  and  _910
REMARK  370  A    between atoms: _910  and  _911
REMARK  371  A    between atoms: _910  and  _913
REMARK  372  A    between atoms: _913  and  _914
REMARK  373  A    between atoms: _914  and  _915
REMARK  374  A    between atoms: _915  and  _916
REMARK  375  A    between atoms: _916  and  _917
REMARK  376  A    between atoms: _921  and  _923
REMARK  377  A    between atoms: _923  and  _924
REMARK  378  A    between atoms: _923  and  _926
REMARK  379  A    between atoms: _926  and  _927
REMARK  380  A    between atoms: _932  and  _933
REMARK  381  A    between atoms: _935  and  _937
REMARK  382  A    between atoms: _937  and  _938
REMARK  383  A    between atoms: _937  and  _940
REMARK  384  A    between atoms: _940  and  _941
REMARK  385  A    between atoms: _946  and  _947
REMARK  386  A    between atoms: _949  and  _951
REMARK  387  A    between atoms: _951  and  _952
REMARK  388  A    between atoms: _956  and  _957
REMARK  389  A    between atoms: _962  and  _964
REMARK  390  A    between atoms: _964  and  _965
REMARK  391  A    between atoms: _964  and  _967
REMARK  392  A    between atoms: _967  and  _968
REMARK  393  A    between atoms: _970  and  _972
REMARK  394  A    between atoms: _972  and  _973
REMARK  395  A    between atoms: _972  and  _975
REMARK  396  A    between atoms: _975  and  _976
REMARK  397  A    between atoms: _981  and  _983
REMARK  398  A    between atoms: _983  and  _984
REMARK  399  A    between atoms: _983  and  _986
REMARK  400  A    between atoms: _986  and  _987
REMARK  401  A    between atoms: _987  and  _988
REMARK  402  A    between atoms: _988  and  _989
REMARK  403  A    between atoms: _989  and  _990
REMARK  404  A    between atoms: _994  and  _996
REMARK  405  A    between atoms: _996  and  _997
REMARK  406  A    between atoms: _996  and  _999
REMARK  407  A    between atoms: _999  and  _1000
REMARK  408  A    between atoms: _1005  and  _1006
REMARK  409  A    between atoms: _1008  and  _1010
REMARK  410  A    between atoms: _1010  and  _1011
REMARK  411  A    between atoms: _1014  and  _1016
REMARK  412  A    between atoms: _1016  and  _1017
REMARK  413  A    between atoms: _1019  and  _1021
REMARK  414  A    between atoms: _1021  and  _1022
REMARK  415  A    between atoms: _1021  and  _1024
REMARK  416  A    between atoms: _1024  and  _1025
REMARK  417  A    between atoms: _1025  and  _1026
REMARK  418  A    between atoms: _1029  and  _1031
REMARK  419  A    between atoms: _1031  and  _1032
REMARK  420  A    between atoms: _1031  and  _1034
REMARK  421  A    between atoms: _1034  and  _1035
REMARK                            x       y       z     vdW  Elec       q    Type
REMARK                         _______ _______ _______ _____ _____    ______ ____
ROOT
ATOM      1  CG  TYR A   1      29.647  40.102  36.444  0.00  0.00    -0.020 A 
ATOM      2  CD2 TYR A   1      28.844  40.435  37.550  0.00  0.00    -0.001 A 
ATOM      3  CE2 TYR A   1      27.897  41.431  37.473  0.00  0.00    +0.036 A 
ATOM      4  CZ  TYR A   1      27.773  42.170  36.306  0.00  0.00    +0.134 A 
ATOM      5  CE1 TYR A   1      28.558  41.889  35.196  0.00  0.00    +0.036 A 
ATOM      6  CD1 TYR A   1      29.513  40.847  35.274  0.00  0.00    -0.001 A 
ENDROOT
BRANCH   4   7
ATOM      7  OH  TYR A   1      26.841  43.183  36.247  0.00  0.00    -0.506 OA
ATOM      8  HH  TYR A   1      27.042  43.856  36.945  0.00  0.00    +0.292 HD
ENDBRANCH   4   7
BRANCH   1   9
ATOM      9  CB  TYR A   1      30.715  39.032  36.553  0.00  0.00    +0.051 C 
BRANCH   9  10
ATOM     10  CA  TYR A   1      31.989  39.607  37.208  0.00  0.00    +0.137 C 
BRANCH  10  11
ATOM     11  N   TYR A   1      32.589  40.629  36.335  0.00  0.00    -0.239 NA
ATOM     12  H   TYR A   1      33.180  40.334  35.532  0.00  0.00    +0.142 HD
ENDBRANCH  10  11
BRANCH  10  13
ATOM     13  C   TYR A   1      32.936  38.471  37.581  0.00  0.00    +0.224 C 
ATOM     14  O   TYR A   1      32.494  37.399  38.004  0.00  0.00    -0.287 OA
ENDBRANCH  10  13
ENDBRANCH   9  10
ENDBRANCH   1   9
TORSDOF 5
REMARK  Name = ../refined-set-2016/2xef/2xef_pocket.pdb
REMARK  421 active torsions:
REMARK  status: ('A' for Active; 'I' for Inactive)
REMARK    1  A    between atoms: _1  and  _3
REMARK    2  A    between atoms: _3  and  _4
REMARK    3  A    between atoms: _7  and  _9
REMARK    4  A    between atoms: _9  and  _10
REMARK    5  A    between atoms: _9  and  _12
REMARK    6  A    between atoms: _12  and  _13
REMARK    7  A    between atoms: _19  and  _21
REMARK    8  A    between atoms: _21  and  _22
REMARK    9  A    between atoms: _21  and  _24
REMARK   10  A    between atoms: _24  and  _25
REMARK   11  A    between atoms: _30  and  _31
REMARK   12  A    between atoms: _33  and  _35
REMARK   13  A    between atoms: _35  and  _36
REMARK   14  A    between atoms: _38  and  _40
REMARK   15  A    between atoms: _40  and  _41
REMARK   16  A    between atoms: _40  and  _43
REMARK   17  A    between atoms: _43  and  _44
REMARK   18  A    between atoms: _44  and  _45
REMARK   19  A    between atoms: _45  and  _46
REMARK   20  A    between atoms: _46  and  _47
REMARK   21  A    between atoms: _51  and  _53
REMARK   22  A    between atoms: _53  and  _54
REMARK   23  A    between atoms: _53  and  _56
REMARK   24  A    between atoms: _59  and  _61
REMARK   25  A    between atoms: _61  and  _62
REMARK   26  A    between atoms: _61  and  _64
REMARK   27  A    between atoms: _64  and  _65
REMARK   28  A    between atoms: _71  and  _73
REMARK   29  A    between atoms: _73  and  _74
REMARK   30  A    between atoms: _73  and  _76
REMARK   31  A    between atoms: _76  and  _77
REMARK   32  A    between atoms: _77  and  _78
REMARK   33  A    between atoms: _78  and  _79
REMARK   34  A    between atoms: _88  and  _90
REMARK   35  A    between atoms: _90  and  _91
REMARK   36  A    between atoms: _93  and  _95
REMARK   37  A    between atoms: _95  and  _96
REMARK   38  A    between atoms: _95  and  _98
REMARK   39  A    between atoms: _98  and  _99
REMARK   40  A    between atoms: _99  and  _100
REMARK   41  A    between atoms: _100  and  _101
REMARK   42  A    between atoms: _101  and  _102
REMARK   43  A    between atoms: _106  and  _108
REMARK   44  A    between atoms: _108  and  _109
REMARK   45  A    between atoms: _108  and  _111
REMARK   46  A    between atoms: _111  and  _112
REMARK   47  A    between atoms: _117  and  _118
REMARK   48  A    between atoms: _120  and  _122
REMARK   49  A    between atoms: _122  and  _123
REMARK   50  A    between atoms: _122  and  _125
REMARK   51  A    between atoms: _125  and  _126
REMARK   52  A    between atoms: _126  and  _127
REMARK   53  A    between atoms: _132  and  _134
REMARK   54  A    between atoms: _134  and  _135
REMARK   55  A    between atoms: _134  and  _137
REMARK   56  A    between atoms: _137  and  _138
REMARK   57  A    between atoms: _138  and  _139
REMARK   58  A    between atoms: _139  and  _140
REMARK   59  A    between atoms: _149  and  _151
REMARK   60  A    between atoms: _151  and  _152
REMARK   61  A    between atoms: _154  and  _156
REMARK   62  A    between atoms: _156  and  _157
REMARK   63  A    between atoms: _156  and  _159
REMARK   64  A    between atoms: _159  and  _160
REMARK   65  A    between atoms: _165  and  _167
REMARK   66  A    between atoms: _167  and  _168
REMARK   67  A    between atoms: _167  and  _170
REMARK   68  A    between atoms: _170  and  _171
REMARK   69  A    between atoms: _174  and  _176
REMARK   70  A    between atoms: _176  and  _177
REMARK   71  A    between atoms: _176  and  _179
REMARK   72  A    between atoms: _179  and  _180
REMARK   73  A    between atoms: _183  and  _185
REMARK   74  A    between atoms: _185  and  _186
REMARK   75  A    between atoms: _185  and  _188
REMARK   76  A    between atoms: _188  and  _189
REMARK   77  A    between atoms: _194  and  _196
REMARK   78  A    between atoms: _196  and  _197
REMARK   79  A    between atoms: _196  and  _199
REMARK   80  A    between atoms: _199  and  _200
REMARK   81  A    between atoms: _203  and  _205
REMARK   82  A    between atoms: _205  and  _206
REMARK   83  A    between atoms: _205  and  _208
REMARK   84  A    between atoms: _208  and  _209
REMARK   85  A    between atoms: _214  and  _216
REMARK   86  A    between atoms: _216  and  _217
REMARK   87  A    between atoms: _219  and  _221
REMARK   88  A    between atoms: _221  and  _222
REMARK   89  A    between atoms: _224  and  _226
REMARK   90  A    between atoms: _226  and  _227
REMARK   91  A    between atoms: _226  and  _229
REMARK   92  A    between atoms: _229  and  _230
REMARK   93  A    between atoms: _234  and  ZN_1038
REMARK   94  A    between atoms: _235  and  _237
REMARK   95  A    between atoms: _237  and  _238
REMARK   96  A    between atoms: _237  and  _240
REMARK   97  A    between atoms: _240  and  _241
REMARK   98  A    between atoms: _244  and  _246
REMARK   99  A    between atoms: _246  and  _247
REMARK  100  A    between atoms: _246  and  _249
REMARK  101  A    between atoms: _249  and  _250
REMARK  102  A    between atoms: _260  and  _262
REMARK  103  A    between atoms: _262  and  _263
REMARK  104  A    between atoms: _262  and  _265
REMARK  105  A    between atoms: _265  and  _266
REMARK  106  A    between atoms: _269  and  _271
REMARK  107  A    between atoms: _271  and  _272
REMARK  108  A    between atoms: _271  and  _274
REMARK  109  A    between atoms: _274  and  _275
REMARK  110  A    between atoms: _279  and  _280
REMARK  111  A    between atoms: _285  and  _287
REMARK  112  A    between atoms: _287  and  _288
REMARK  113  A    between atoms: _291  and  _293
REMARK  114  A    between atoms: _293  and  _294
REMARK  115  A    between atoms: _293  and  _296
REMARK  116  A    between atoms: _296  and  _297
REMARK  117  A    between atoms: _297  and  _298
REMARK  118  A    between atoms: _301  and  _303
REMARK  119  A    between atoms: _303  and  _304
REMARK  120  A    between atoms: _303  and  _306
REMARK  121  A    between atoms: _306  and  _307
REMARK  122  A    between atoms: _307  and  _308
REMARK  123  A    between atoms: _308  and  _310
REMARK  124  A    between atoms: _310  and  ZN_1037
REMARK  125  A    between atoms: _311  and  _313
REMARK  126  A    between atoms: _313  and  _314
REMARK  127  A    between atoms: _313  and  _316
REMARK  128  A    between atoms: _316  and  _317
REMARK  129  A    between atoms: _323  and  _325
REMARK  130  A    between atoms: _325  and  _326
REMARK  131  A    between atoms: _328  and  _330
REMARK  132  A    between atoms: _330  and  _331
REMARK  133  A    between atoms: _330  and  _333
REMARK  134  A    between atoms: _333  and  _334
REMARK  135  A    between atoms: _337  and  _339
REMARK  136  A    between atoms: _339  and  _340
REMARK  137  A    between atoms: _339  and  _342
REMARK  138  A    between atoms: _342  and  _343
REMARK  139  A    between atoms: _346  and  _348
REMARK  140  A    between atoms: _348  and  _349
REMARK  141  A    between atoms: _348  and  _351
REMARK  142  A    between atoms: _351  and  _352
REMARK  143  A    between atoms: _357  and  _359
REMARK  144  A    between atoms: _359  and  _360
REMARK  145  A    between atoms: _359  and  _362
REMARK  146  A    between atoms: _362  and  _363
REMARK  147  A    between atoms: _363  and  _365
REMARK  148  A    between atoms: _365  and  ZN_1038
REMARK  149  A    between atoms: _366  and  _368
REMARK  150  A    between atoms: _368  and  _369
REMARK  151  A    between atoms: _368  and  _371
REMARK  152  A    between atoms: _371  and  _372
REMARK  153  A    between atoms: _374  and  _376
REMARK  154  A    between atoms: _376  and  _377
REMARK  155  A    between atoms: _376  and  _379
REMARK  156  A    between atoms: _379  and  _380
REMARK  157  A    between atoms: _382  and  _384
REMARK  158  A    between atoms: _384  and  _385
REMARK  159  A    between atoms: _384  and  _387
REMARK  160  A    between atoms: _387  and  _388
REMARK  161  A    between atoms: _391  and  _393
REMARK  162  A    between atoms: _393  and  _394
REMARK  163  A    between atoms: _393  and  _396
REMARK  164  A    between atoms: _396  and  _397
REMARK  165  A    between atoms: _397  and  _398
REMARK  166  A    between atoms: _401  and  _403
REMARK  167  A    between atoms: _403  and  _404
REMARK  168  A    between atoms: _403  and  _406
REMARK  169  A    between atoms: _406  and  _407
REMARK  170  A    between atoms: _412  and  _413
REMARK  171  A    between atoms: _415  and  _417
REMARK  172  A    between atoms: _417  and  _418
REMARK  173  A    between atoms: _417  and  _420
REMARK  174  A    between atoms: _420  and  _421
REMARK  175  A    between atoms: _424  and  _426
REMARK  176  A    between atoms: _426  and  _427
REMARK  177  A    between atoms: _426  and  _429
REMARK  178  A    between atoms: _429  and  _430
REMARK  179  A    between atoms: _433  and  _435
REMARK  180  A    between atoms: _435  and  _436
REMARK  181  A    between atoms: _435  and  _438
REMARK  182  A    between atoms: _438  and  _439
REMARK  183  A    between atoms: _439  and  _440
REMARK  184  A    between atoms: _440  and  _441
REMARK  185  A    between atoms: _450  and  _452
REMARK  186  A    between atoms: _452  and  _453
REMARK  187  A    between atoms: _452  and  _455
REMARK  188  A    between atoms: _458  and  _460
REMARK  189  A    between atoms: _460  and  _461
REMARK  190  A    between atoms: _460  and  _463
REMARK  191  A    between atoms: _463  and  _464
REMARK  192  A    between atoms: _467  and  _469
REMARK  193  A    between atoms: _469  and  _470
REMARK  194  A    between atoms: _469  and  _472
REMARK  195  A    between atoms: _474  and  _476
REMARK  196  A    between atoms: _476  and  _477
REMARK  197  A    between atoms: _476  and  _479
REMARK  198  A    between atoms: _479  and  _480
REMARK  199  A    between atoms: _490  and  _492
REMARK  200  A    between atoms: _492  and  _493
REMARK  201  A    between atoms: _492  and  _495
REMARK  202  A    between atoms: _495  and  _496
REMARK  203  A    between atoms: _496  and  _497
REMARK  204  A    between atoms: _497  and  _498
REMARK  205  A    between atoms: _498  and  _499
REMARK  206  A    between atoms: _503  and  _505
REMARK  207  A    between atoms: _505  and  _506
REMARK  208  A    between atoms: _505  and  _508
REMARK  209  A    between atoms: _508  and  _509
REMARK  210  A    between atoms: _512  and  _513
REMARK  211  A    between atoms: _519  and  _520
REMARK  212  A    between atoms: _525  and  _527
REMARK  213  A    between atoms: _527  and  _528
REMARK  214  A    between atoms: _527  and  _530
REMARK  215  A    between atoms: _530  and  _531
REMARK  216  A    between atoms: _531  and  _532
REMARK  217  A    between atoms: _535  and  _537
REMARK  218  A    between atoms: _537  and  _538
REMARK  219  A    between atoms: _537  and  _540
REMARK  220  A    between atoms: _540  and  _541
REMARK  221  A    between atoms: _541  and  _542
REMARK  222  A    between atoms: _542  and  _543
REMARK  223  A    between atoms: _552  and  _554
REMARK  224  A    between atoms: _554  and  _555
REMARK  225  A    between atoms: _554  and  _557
REMARK  226  A    between atoms: _557  and  _558
REMARK  227  A    between atoms: _561  and  _563
REMARK  228  A    between atoms: _563  and  _564
REMARK  229  A    between atoms: _563  and  _566
REMARK  230  A    between atoms: _566  and  _567
REMARK  231  A    between atoms: _569  and  _571
REMARK  232  A    between atoms: _571  and  _572
REMARK  233  A    between atoms: _571  and  _574
REMARK  234  A    between atoms: _574  and  _575
REMARK  235  A    between atoms: _575  and  _576
REMARK  236  A    between atoms: _576  and  _577
REMARK  237  A    between atoms: _577  and  _578
REMARK  238  A    between atoms: _582  and  _584
REMARK  239  A    between atoms: _584  and  _585
REMARK  240  A    between atoms: _584  and  _587
REMARK  241  A    between atoms: _587  and  _588
REMARK  242  A    between atoms: _591  and  _593
REMARK  243  A    between atoms: _593  and  _594
REMARK  244  A    between atoms: _596  and  _598
REMARK  245  A    between atoms: _598  and  _599
REMARK  246  A    between atoms: _598  and  _601
REMARK  247  A    between atoms: _601  and  _602
REMARK  248  A    between atoms: _604  and  _606
REMARK  249  A    between atoms: _606  and  _607
REMARK  250  A    between atoms: _609  and  _611
REMARK  251  A    between atoms: _611  and  _612
REMARK  252  A    between atoms: _611  and  _614
REMARK  253  A    between atoms: _614  and  _615
REMARK  254  A    between atoms: _620  and  _622
REMARK  255  A    between atoms: _622  and  _623
REMARK  256  A    between atoms: _622  and  _625
REMARK  257  A    between atoms: _625  and  _626
REMARK  258  A    between atoms: _629  and  _631
REMARK  259  A    between atoms: _631  and  _632
REMARK  260  A    between atoms: _631  and  _634
REMARK  261  A    between atoms: _634  and  _635
REMARK  262  A    between atoms: _641  and  _643
REMARK  263  A    between atoms: _643  and  _644
REMARK  264  A    between atoms: _643  and  _646
REMARK  265  A    between atoms: _646  and  _647
REMARK  266  A    between atoms: _647  and  _648
REMARK  267  A    between atoms: _651  and  _653
REMARK  268  A    between atoms: _653  and  _654
REMARK  269  A    between atoms: _653  and  _656
REMARK  270  A    between atoms: _656  and  _657
REMARK  271  A    between atoms: _657  and  _658
REMARK  272  A    between atoms: _663  and  _665
REMARK  273  A    between atoms: _665  and  _666
REMARK  274  A    between atoms: _665  and  _668
REMARK  275  A    between atoms: _668  and  _669
REMARK  276  A    between atoms: _669  and  _670
REMARK  277  A    between atoms: _670  and  _671
REMARK  278  A    between atoms: _680  and  _682
REMARK  279  A    between atoms: _682  and  _683
REMARK  280  A    between atoms: _682  and  _685
REMARK  281  A    between atoms: _685  and  _686
REMARK  282  A    between atoms: _686  and  _687
REMARK  283  A    between atoms: _687  and  _688
REMARK  284  A    between atoms: _697  and  _699
REMARK  285  A    between atoms: _699  and  _700
REMARK  286  A    between atoms: _699  and  _702
REMARK  287  A    between atoms: _702  and  _703
REMARK  288  A    between atoms: _708  and  _709
REMARK  289  A    between atoms: _711  and  _713
REMARK  290  A    between atoms: _713  and  _714
REMARK  291  A    between atoms: _713  and  _716
REMARK  292  A    between atoms: _716  and  _717
REMARK  293  A    between atoms: _720  and  _722
REMARK  294  A    between atoms: _722  and  _723
REMARK  295  A    between atoms: _722  and  _725
REMARK  296  A    between atoms: _725  and  _726
REMARK  297  A    between atoms: _726  and  _727
REMARK  298  A    between atoms: _727  and  _728
REMARK  299  A    between atoms: _728  and  _729
REMARK  300  A    between atoms: _733  and  _735
REMARK  301  A    between atoms: _735  and  _736
REMARK  302  A    between atoms: _735  and  _738
REMARK  303  A    between atoms: _738  and  _739
REMARK  304  A    between atoms: _744  and  _746
REMARK  305  A    between atoms: _746  and  _747
REMARK  306  A    between atoms: _746  and  _749
REMARK  307  A    between atoms: _749  and  _750
REMARK  308  A    between atoms: _760  and  _762
REMARK  309  A    between atoms: _762  and  _763
REMARK  310  A    between atoms: _762  and  _765
REMARK  311  A    between atoms: _765  and  _766
REMARK  312  A    between atoms: _766  and  _767
REMARK  313  A    between atoms: _770  and  _772
REMARK  314  A    between atoms: _772  and  _773
REMARK  315  A    between atoms: _772  and  _775
REMARK  316  A    between atoms: _775  and  _776
REMARK  317  A    between atoms: _779  and  _781
REMARK  318  A    between atoms: _781  and  _782
REMARK  319  A    between atoms: _781  and  _784
REMARK  320  A    between atoms: _784  and  _785
REMARK  321  A    between atoms: _790  and  _792
REMARK  322  A    between atoms: _792  and  _793
REMARK  323  A    between atoms: _792  and  _795
REMARK  324  A    between atoms: _795  and  _796
REMARK  325  A    between atoms: _802  and  _804
REMARK  326  A    between atoms: _804  and  _805
REMARK  327  A    between atoms: _804  and  _807
REMARK  328  A    between atoms: _807  and  _808
REMARK  329  A    between atoms: _810  and  _812
REMARK  330  A    between atoms: _812  and  _813
REMARK  331  A    between atoms: _815  and  _817
REMARK  332  A    between atoms: _817  and  _818
REMARK  333  A    between atoms: _817  and  _820
REMARK  334  A    between atoms: _820  and  _821
REMARK  335  A    between atoms: _826  and  _827
REMARK  336  A    between atoms: _829  and  _831
REMARK  337  A    between atoms: _831  and  _832
REMARK  338  A    between atoms: _831  and  _834
REMARK  339  A    between atoms: _834  and  _835
REMARK  340  A    between atoms: _840  and  _841
REMARK  341  A    between atoms: _843  and  _845
REMARK  342  A    between atoms: _845  and  _846
REMARK  343  A    between atoms: _845  and  _848
REMARK  344  A    between atoms: _848  and  _849
REMARK  345  A    between atoms: _853  and  ZN_1037
REMARK  346  A    between atoms: _854  and  _856
REMARK  347  A    between atoms: _856  and  _857
REMARK  348  A    between atoms: _856  and  _859
REMARK  349  A    between atoms: _859  and  _860
REMARK  350  A    between atoms: _860  and  _861
REMARK  351  A    between atoms: _864  and  _866
REMARK  352  A    between atoms: _866  and  _867
REMARK  353  A    between atoms: _866  and  _869
REMARK  354  A    between atoms: _869  and  _870
REMARK  355  A    between atoms: _870  and  _871
REMARK  356  A    between atoms: _871  and  _872
REMARK  357  A    between atoms: _881  and  _883
REMARK  358  A    between atoms: _883  and  _884
REMARK  359  A    between atoms: _883  and  _886
REMARK  360  A    between atoms: _886  and  _887
REMARK  361  A    between atoms: _887  and  _888
REMARK  362  A    between atoms: _888  and  _889
REMARK  363  A    between atoms: _889  and  _890
REMARK  364  A    between atoms: _894  and  _896
REMARK  365  A    between atoms: _896  and  _897
REMARK  366  A    between atoms: _896  and  _899
REMARK  367  A    between atoms: _899  and  _900
REMARK  368  A    between atoms: _905  and  _906
REMARK  369  A    between atoms: _908  and  _910
REMARK  370  A    between atoms: _910  and  _911
REMARK  371  A    between atoms: _910  and  _913
REMARK  372  A    between atoms: _913  and  _914
REMARK  373  A    between atoms: _914  and  _915
REMARK  374  A    between atoms: _915  and  _916
REMARK  375  A    between atoms: _916  and  _917
REMARK  376  A    between atoms: _921  and  _923
REMARK  377  A    between atoms: _923  and  _924
REMARK  378  A    between atoms: _923  and  _926
REMARK  379  A    between atoms: _926  and  _927
REMARK  380  A    between atoms: _932  and  _933
REMARK  381  A    between atoms: _935  and  _937
REMARK  382  A    between atoms: _937  and  _938
REMARK  383  A    between atoms: _937  and  _940
REMARK  384  A    between atoms: _940  and  _941
REMARK  385  A    between atoms: _946  and  _947
REMARK  386  A    between atoms: _949  and  _951
REMARK  387  A    between atoms: _951  and  _952
REMARK  388  A    between atoms: _956  and  _957
REMARK  389  A    between atoms: _962  and  _964
REMARK  390  A    between atoms: _964  and  _965
REMARK  391  A    between atoms: _964  and  _967
REMARK  392  A    between atoms: _967  and  _968
REMARK  393  A    between atoms: _970  and  _972
REMARK  394  A    between atoms: _972  and  _973
REMARK  395  A    between atoms: _972  and  _975
REMARK  396  A    between atoms: _975  and  _976
REMARK  397  A    between atoms: _981  and  _983
REMARK  398  A    between atoms: _983  and  _984
REMARK  399  A    between atoms: _983  and  _986
REMARK  400  A    between atoms: _986  and  _987
REMARK  401  A    between atoms: _987  and  _988
REMARK  402  A    between atoms: _988  and  _989
REMARK  403  A    between atoms: _989  and  _990
REMARK  404  A    between atoms: _994  and  _996
REMARK  405  A    between atoms: _996  and  _997
REMARK  406  A    between atoms: _996  and  _999
REMARK  407  A    between atoms: _999  and  _1000
REMARK  408  A    between atoms: _1005  and  _1006
REMARK  409  A    between atoms: _1008  and  _1010
REMARK  410  A    between atoms: _1010  and  _1011
REMARK  411  A    between atoms: _1014  and  _1016
REMARK  412  A    between atoms: _1016  and  _1017
REMARK  413  A    between atoms: _1019  and  _1021
REMARK  414  A    between atoms: _1021  and  _1022
REMARK  415  A    between atoms: _1021  and  _1024
REMARK  416  A    between atoms: _1024  and  _1025
REMARK  417  A    between atoms: _1025  and  _1026
REMARK  418  A    between atoms: _1029  and  _1031
REMARK  419  A    between atoms: _1031  and  _1032
REMARK  420  A    between atoms: _1031  and  _1034
REMARK  421  A    between atoms: _1034  and  _1035
REMARK                            x       y       z     vdW  Elec       q    Type
REMARK                         _______ _______ _______ _____ _____    ______ ____
ROOT
ATOM      1  CA  ILE A   5      14.144  45.186  32.211  0.00  0.00    +0.149 C 
ENDROOT
BRANCH   1   2
ATOM      2  C   ILE A   5      13.075  46.266  32.036  0.00  0.00    +0.241 C 
ATOM      3  N   LEU A   6      12.260  46.477  33.069  0.00  0.00    -0.297 N 
ATOM      4  H   LEU A   6      12.346  45.894  33.926  0.00  0.00    +0.150 HD
ATOM      5  O   ILE A   5      13.026  46.952  31.025  0.00  0.00    -0.273 OA
BRANCH   3   6
ATOM      6  CA  LEU A   6      11.240  47.532  32.999  0.00  0.00    +0.149 C 
BRANCH   6   7
ATOM      7  C   LEU A   6      11.820  48.900  33.210  0.00  0.00    +0.241 C 
ATOM      8  O   LEU A   6      12.865  49.051  33.818  0.00  0.00    -0.273 OA
ATOM      9  N   ASN A   7      11.044  49.922  32.809  0.00  0.00    -0.297 N 
ATOM     10  H   ASN A   7      10.189  49.717  32.253  0.00  0.00    +0.150 HD
BRANCH   9  11
ATOM     11  CA  ASN A   7      11.363  51.314  33.129  0.00  0.00    +0.158 C 
BRANCH  11  12
ATOM     12  C   ASN A   7      10.108  51.928  33.750  0.00  0.00    +0.241 C 
ATOM     13  N   LEU A   8       9.864  51.517  34.997  0.00  0.00    -0.297 N 
ATOM     14  H   LEU A   8      10.560  50.924  35.493  0.00  0.00    +0.150 HD
ATOM     15  O   ASN A   7       9.362  52.688  33.139  0.00  0.00    -0.273 OA
BRANCH  13  16
ATOM     16  CA  LEU A   8       8.603  51.903  35.678  0.00  0.00    +0.149 C 
BRANCH  16  17
ATOM     17  C   LEU A   8       8.602  53.306  36.263  0.00  0.00    +0.241 C 
ATOM     18  N   ASN A   9       9.810  53.867  36.499  0.00  0.00    -0.297 N 
ATOM     19  H   ASN A   9      10.679  53.374  36.211  0.00  0.00    +0.150 HD
ATOM     20  O   LEU A   8       7.516  53.882  36.482  0.00  0.00    -0.273 OA
BRANCH  18  21
ATOM     21  CA  ASN A   9       9.893  55.196  37.174  0.00  0.00    +0.158 C 
BRANCH  21  22
ATOM     22  C   ASN A   9       8.989  55.300  38.419  0.00  0.00    +0.241 C 
ATOM     23  N   GLY A  10       8.891  54.229  39.188  0.00  0.00    -0.296 N 
ATOM     24  H   GLY A  10       9.304  53.322  38.891  0.00  0.00    +0.150 HD
ATOM     25  O   ASN A   9       8.349  56.325  38.643  0.00  0.00    -0.273 OA
BRANCH  23  26
ATOM     26  CA  GLY A  10       8.188  54.349  40.466  0.00  0.00    +0.163 C 
BRANCH  26  27
ATOM     27  C   GLY A  10       6.723  53.898  40.396  0.00  0.00    +0.229 C 
ATOM     28  O   GLY A  10       6.034  53.922  41.432  0.00  0.00    -0.286 OA
ENDBRANCH  26  27
ENDBRANCH  23  26
ENDBRANCH  21  22
BRANCH  21  29
ATOM     29  CB  ASN A   9       9.585  56.294  36.179  0.00  0.00    +0.114 C 
BRANCH  29  30
ATOM     30  CG  ASN A   9      10.626  56.345  35.105  0.00  0.00    +0.222 C 
ATOM     31  OD1 ASN A   9      11.814  56.075  35.368  0.00  0.00    -0.275 OA
ATOM     32  ND2 ASN A   9      10.215  56.718  33.896  0.00  0.00    -0.329 N 
ATOM     33 HD21 ASN A   9       9.211  56.932  33.731  0.00  0.00    +0.145 HD
ATOM     34 HD22 ASN A   9      10.898  56.796  33.116  0.00  0.00    +0.145 HD
ENDBRANCH  29  30
ENDBRANCH  21  29
ENDBRANCH  18  21
ENDBRANCH  16  17
BRANCH  16  35
ATOM     35  CB  LEU A   8       8.379  50.969  36.889  0.00  0.00    +0.029 C 
BRANCH  35  36
ATOM     36  CG  LEU A   8       8.007  49.551  36.472  0.00  0.00    +0.002 C 
ATOM     37  CD2 LEU A   8       7.916  48.678  37.755  0.00  0.00    +0.000 C 
ATOM     38  CD1 LEU A   8       6.654  49.489  35.732  0.00  0.00    +0.000 C 
ENDBRANCH  35  36
ENDBRANCH  16  35
ENDBRANCH  13  16
ENDBRANCH  11  12
BRANCH  11  39
ATOM     39  CB  ASN A   7      11.772  52.083  31.874  0.00  0.00    +0.114 C 
BRANCH  39  40
ATOM     40  CG  ASN A   7      13.193  51.785  31.500  0.00  0.00    +0.222 C 
ATOM     41  OD1 ASN A   7      14.138  52.408  32.013  0.00  0.00    -0.275 OA
ATOM     42  ND2 ASN A   7      13.363  50.818  30.626  0.00  0.00    -0.329 N 
ATOM     43 HD21 ASN A   7      14.323  50.543  30.334  0.00  0.00    +0.145 HD
ATOM     44 HD22 ASN A   7      12.538  50.328  30.226  0.00  0.00    +0.145 HD
ENDBRANCH  39  40
ENDBRANCH  11  39
ENDBRANCH   9  11
ENDBRANCH   6   7
BRANCH   6  45
ATOM     45  CB  LEU A   6      10.224  47.325  34.130  0.00  0.00    +0.029 C 
BRANCH  45  46
ATOM     46  CG  LEU A   6       9.359  46.051  34.077  0.00  0.00    +0.002 C 
ATOM     47  CD2 LEU A   6       8.463  45.877  35.316  0.00  0.00    +0.000 C 
ATOM     48  CD1 LEU A   6       8.499  46.096  32.863  0.00  0.00    +0.000 C 
ENDBRANCH  45  46
ENDBRANCH   6  45
ENDBRANCH   3   6
ENDBRANCH   1   2
BRANCH   1  51
ATOM     49  C   ASN A   4      14.285  43.761  34.208  0.00  0.00    +0.241 C 
ATOM     50  O   ASN A   4      15.330  44.293  34.607  0.00  0.00    -0.273 OA
ATOM     51  N   ILE A   5      13.637  44.110  33.104  0.00  0.00    -0.297 N 
ATOM     52  H   ILE A   5      12.754  43.620  32.857  0.00  0.00    +0.150 HD
BRANCH  49  53
ATOM     53  CA  ASN A   4      13.643  42.586  34.948  0.00  0.00    +0.158 C 
BRANCH  53  55
ATOM     54  C   GLY A   3      15.491  41.092  35.185  0.00  0.00    +0.243 C 
ATOM     55  N   ASN A   4      14.622  41.903  35.769  0.00  0.00    -0.297 N 
ATOM     56  H   ASN A   4      14.642  42.047  36.799  0.00  0.00    +0.150 HD
ATOM     57  O   GLY A   3      15.553  40.895  33.943  0.00  0.00    -0.273 OA
BRANCH  54  58
ATOM     58  CA  GLY A   3      16.503  40.428  36.102  0.00  0.00    +0.176 C 
BRANCH  58  61
ATOM     59  C   ARG A   2      18.148  38.632  35.998  0.00  0.00    +0.241 C 
ATOM     60  O   ARG A   2      18.927  39.246  36.705  0.00  0.00    -0.273 OA
ATOM     61  N   GLY A   3      16.957  39.117  35.618  0.00  0.00    -0.295 N 
ATOM     62  H   GLY A   3      16.352  38.563  34.978  0.00  0.00    +0.150 HD
BRANCH  59  63
ATOM     63  CA  ARG A   2      18.439  37.177  35.616  0.00  0.00    +0.149 C 
BRANCH  63  65
ATOM     64  C   GLN A   1      20.799  37.302  35.097  0.00  0.00    +0.238 C 
ATOM     65  N   ARG A   2      19.826  36.846  35.880  0.00  0.00    -0.297 N 
ATOM     66  H   ARG A   2      20.063  36.243  36.694  0.00  0.00    +0.150 HD
ATOM     67  O   GLN A   1      20.581  37.848  33.988  0.00  0.00    -0.274 OA
BRANCH  64  68
ATOM     68  CA  GLN A   1      22.223  37.096  35.582  0.00  0.00    +0.145 C 
BRANCH  68  69
ATOM     69  N   GLN A   1      22.957  36.169  34.703  0.00  0.00    -0.238 NA
ATOM     70  H   GLN A   1      23.484  36.552  33.893  0.00  0.00    +0.142 HD
ENDBRANCH  68  69
BRANCH  68  71
ATOM     71  CB  GLN A   1      22.951  38.453  35.606  0.00  0.00    +0.036 C 
BRANCH  71  72
ATOM     72  CG  GLN A   1      22.262  39.484  36.499  0.00  0.00    +0.087 C 
BRANCH  72  73
ATOM     73  CD  GLN A   1      22.844  40.885  36.279  0.00  0.00    +0.219 C 
ATOM     74  OE1 GLN A   1      22.106  41.894  36.298  0.00  0.00    -0.275 OA
ATOM     75  NE2 GLN A   1      24.182  40.966  36.150  0.00  0.00    -0.329 N 
ATOM     76 HE21 GLN A   1      24.757  40.099  36.139  0.00  0.00    +0.145 HD
ATOM     77 HE22 GLN A   1      24.641  41.895  36.061  0.00  0.00    +0.145 HD
ENDBRANCH  72  73
ENDBRANCH  71  72
ENDBRANCH  68  71
ENDBRANCH  64  68
ENDBRANCH  63  65
BRANCH  63  78
ATOM     78  CB  ARG A   2      17.511  36.279  36.459  0.00  0.00    +0.033 C 
BRANCH  78  79
ATOM     79  CG  ARG A   2      17.466  34.832  35.917  0.00  0.00    +0.045 C 
BRANCH  79  80
ATOM     80  CD  ARG A   2      17.126  33.811  37.048  0.00  0.00    +0.174 C 
BRANCH  80  81
ATOM     81  NE  ARG A   2      17.371  32.418  36.640  0.00  0.00    -0.265 N 
ATOM     82  CZ  ARG A   2      18.573  31.862  36.612  0.00  0.00    +0.342 C 
ATOM     83  NH2 ARG A   2      19.669  32.578  36.878  0.00  0.00    -0.292 N 
ATOM     84 HH21 ARG A   2      19.586  33.588  37.112  0.00  0.00    +0.255 HD
ATOM     85 HH22 ARG A   2      20.605  32.125  36.852  0.00  0.00    +0.255 HD
ATOM     86  NH1 ARG A   2      18.691  30.568  36.252  0.00  0.00    -0.292 N 
ATOM     87 HH11 ARG A   2      19.629  30.119  36.226  0.00  0.00    +0.255 HD
ATOM     88 HH12 ARG A   2      17.844  30.019  36.001  0.00  0.00    +0.255 HD
ATOM     89  HE  ARG A   2      16.555  31.838  36.358  0.00  0.00    +0.259 HD
ENDBRANCH  80  81
ENDBRANCH  79  80
ENDBRANCH  78  79
ENDBRANCH  63  78
ENDBRANCH  59  63
ENDBRANCH  58  61
ENDBRANCH  54  58
ENDBRANCH  53  55
BRANCH  53  90
ATOM     90  CB  ASN A   4      12.427  43.046  35.767  0.00  0.00    +0.114 C 
BRANCH  90  91
ATOM     91  CG  ASN A   4      12.656  44.395  36.481  0.00  0.00    +0.222 C 
ATOM     92  ND2 ASN A   4      12.802  44.380  37.861  0.00  0.00    -0.329 N 
ATOM     93 HD21 ASN A   4      12.903  45.274  38.383  0.00  0.00    +0.145 HD
ATOM     94 HD22 ASN A   4      12.810  43.475  38.373  0.00  0.00    +0.145 HD
ATOM     95  OD1 ASN A   4      12.642  45.450  35.841  0.00  0.00    -0.275 OA
ENDBRANCH  90  91
ENDBRANCH  53  90
ENDBRANCH  49  53
ENDBRANCH   1  51
BRANCH   1  96
ATOM     96  CB  ILE A   5      14.544  44.652  30.815  0.00  0.00    +0.027 C 
ATOM     97  CG2 ILE A   5      15.827  43.828  30.938  0.00  0.00    +0.002 C 
BRANCH  96  98
ATOM     98  CG1 ILE A   5      13.470  43.707  30.266  0.00  0.00    +0.002 C 
ATOM     99  CD1 ILE A   5      13.621  43.386  28.721  0.00  0.00    +0.000 C 
ENDBRANCH  96  98
ENDBRANCH   1  96
TORSDOF 39
REMARK  Name = ../refined-set-2016/2xef/2xef_pocket.pdb
REMARK  421 active torsions:
REMARK  status: ('A' for Active; 'I' for Inactive)
REMARK    1  A    between atoms: _1  and  _3
REMARK    2  A    between atoms: _3  and  _4
REMARK    3  A    between atoms: _7  and  _9
REMARK    4  A    between atoms: _9  and  _10
REMARK    5  A    between atoms: _9  and  _12
REMARK    6  A    between atoms: _12  and  _13
REMARK    7  A    between atoms: _19  and  _21
REMARK    8  A    between atoms: _21  and  _22
REMARK    9  A    between atoms: _21  and  _24
REMARK   10  A    between atoms: _24  and  _25
REMARK   11  A    between atoms: _30  and  _31
REMARK   12  A    between atoms: _33  and  _35
REMARK   13  A    between atoms: _35  and  _36
REMARK   14  A    between atoms: _38  and  _40
REMARK   15  A    between atoms: _40  and  _41
REMARK   16  A    between atoms: _40  and  _43
REMARK   17  A    between atoms: _43  and  _44
REMARK   18  A    between atoms: _44  and  _45
REMARK   19  A    between atoms: _45  and  _46
REMARK   20  A    between atoms: _46  and  _47
REMARK   21  A    between atoms: _51  and  _53
REMARK   22  A    between atoms: _53  and  _54
REMARK   23  A    between atoms: _53  and  _56
REMARK   24  A    between atoms: _59  and  _61
REMARK   25  A    between atoms: _61  and  _62
REMARK   26  A    between atoms: _61  and  _64
REMARK   27  A    between atoms: _64  and  _65
REMARK   28  A    between atoms: _71  and  _73
REMARK   29  A    between atoms: _73  and  _74
REMARK   30  A    between atoms: _73  and  _76
REMARK   31  A    between atoms: _76  and  _77
REMARK   32  A    between atoms: _77  and  _78
REMARK   33  A    between atoms: _78  and  _79
REMARK   34  A    between atoms: _88  and  _90
REMARK   35  A    between atoms: _90  and  _91
REMARK   36  A    between atoms: _93  and  _95
REMARK   37  A    between atoms: _95  and  _96
REMARK   38  A    between atoms: _95  and  _98
REMARK   39  A    between atoms: _98  and  _99
REMARK   40  A    between atoms: _99  and  _100
REMARK   41  A    between atoms: _100  and  _101
REMARK   42  A    between atoms: _101  and  _102
REMARK   43  A    between atoms: _106  and  _108
REMARK   44  A    between atoms: _108  and  _109
REMARK   45  A    between atoms: _108  and  _111
REMARK   46  A    between atoms: _111  and  _112
REMARK   47  A    between atoms: _117  and  _118
REMARK   48  A    between atoms: _120  and  _122
REMARK   49  A    between atoms: _122  and  _123
REMARK   50  A    between atoms: _122  and  _125
REMARK   51  A    between atoms: _125  and  _126
REMARK   52  A    between atoms: _126  and  _127
REMARK   53  A    between atoms: _132  and  _134
REMARK   54  A    between atoms: _134  and  _135
REMARK   55  A    between atoms: _134  and  _137
REMARK   56  A    between atoms: _137  and  _138
REMARK   57  A    between atoms: _138  and  _139
REMARK   58  A    between atoms: _139  and  _140
REMARK   59  A    between atoms: _149  and  _151
REMARK   60  A    between atoms: _151  and  _152
REMARK   61  A    between atoms: _154  and  _156
REMARK   62  A    between atoms: _156  and  _157
REMARK   63  A    between atoms: _156  and  _159
REMARK   64  A    between atoms: _159  and  _160
REMARK   65  A    between atoms: _165  and  _167
REMARK   66  A    between atoms: _167  and  _168
REMARK   67  A    between atoms: _167  and  _170
REMARK   68  A    between atoms: _170  and  _171
REMARK   69  A    between atoms: _174  and  _176
REMARK   70  A    between atoms: _176  and  _177
REMARK   71  A    between atoms: _176  and  _179
REMARK   72  A    between atoms: _179  and  _180
REMARK   73  A    between atoms: _183  and  _185
REMARK   74  A    between atoms: _185  and  _186
REMARK   75  A    between atoms: _185  and  _188
REMARK   76  A    between atoms: _188  and  _189
REMARK   77  A    between atoms: _194  and  _196
REMARK   78  A    between atoms: _196  and  _197
REMARK   79  A    between atoms: _196  and  _199
REMARK   80  A    between atoms: _199  and  _200
REMARK   81  A    between atoms: _203  and  _205
REMARK   82  A    between atoms: _205  and  _206
REMARK   83  A    between atoms: _205  and  _208
REMARK   84  A    between atoms: _208  and  _209
REMARK   85  A    between atoms: _214  and  _216
REMARK   86  A    between atoms: _216  and  _217
REMARK   87  A    between atoms: _219  and  _221
REMARK   88  A    between atoms: _221  and  _222
REMARK   89  A    between atoms: _224  and  _226
REMARK   90  A    between atoms: _226  and  _227
REMARK   91  A    between atoms: _226  and  _229
REMARK   92  A    between atoms: _229  and  _230
REMARK   93  A    between atoms: _234  and  ZN_1038
REMARK   94  A    between atoms: _235  and  _237
REMARK   95  A    between atoms: _237  and  _238
REMARK   96  A    between atoms: _237  and  _240
REMARK   97  A    between atoms: _240  and  _241
REMARK   98  A    between atoms: _244  and  _246
REMARK   99  A    between atoms: _246  and  _247
REMARK  100  A    between atoms: _246  and  _249
REMARK  101  A    between atoms: _249  and  _250
REMARK  102  A    between atoms: _260  and  _262
REMARK  103  A    between atoms: _262  and  _263
REMARK  104  A    between atoms: _262  and  _265
REMARK  105  A    between atoms: _265  and  _266
REMARK  106  A    between atoms: _269  and  _271
REMARK  107  A    between atoms: _271  and  _272
REMARK  108  A    between atoms: _271  and  _274
REMARK  109  A    between atoms: _274  and  _275
REMARK  110  A    between atoms: _279  and  _280
REMARK  111  A    between atoms: _285  and  _287
REMARK  112  A    between atoms: _287  and  _288
REMARK  113  A    between atoms: _291  and  _293
REMARK  114  A    between atoms: _293  and  _294
REMARK  115  A    between atoms: _293  and  _296
REMARK  116  A    between atoms: _296  and  _297
REMARK  117  A    between atoms: _297  and  _298
REMARK  118  A    between atoms: _301  and  _303
REMARK  119  A    between atoms: _303  and  _304
REMARK  120  A    between atoms: _303  and  _306
REMARK  121  A    between atoms: _306  and  _307
REMARK  122  A    between atoms: _307  and  _308
REMARK  123  A    between atoms: _308  and  _310
REMARK  124  A    between atoms: _310  and  ZN_1037
REMARK  125  A    between atoms: _311  and  _313
REMARK  126  A    between atoms: _313  and  _314
REMARK  127  A    between atoms: _313  and  _316
REMARK  128  A    between atoms: _316  and  _317
REMARK  129  A    between atoms: _323  and  _325
REMARK  130  A    between atoms: _325  and  _326
REMARK  131  A    between atoms: _328  and  _330
REMARK  132  A    between atoms: _330  and  _331
REMARK  133  A    between atoms: _330  and  _333
REMARK  134  A    between atoms: _333  and  _334
REMARK  135  A    between atoms: _337  and  _339
REMARK  136  A    between atoms: _339  and  _340
REMARK  137  A    between atoms: _339  and  _342
REMARK  138  A    between atoms: _342  and  _343
REMARK  139  A    between atoms: _346  and  _348
REMARK  140  A    between atoms: _348  and  _349
REMARK  141  A    between atoms: _348  and  _351
REMARK  142  A    between atoms: _351  and  _352
REMARK  143  A    between atoms: _357  and  _359
REMARK  144  A    between atoms: _359  and  _360
REMARK  145  A    between atoms: _359  and  _362
REMARK  146  A    between atoms: _362  and  _363
REMARK  147  A    between atoms: _363  and  _365
REMARK  148  A    between atoms: _365  and  ZN_1038
REMARK  149  A    between atoms: _366  and  _368
REMARK  150  A    between atoms: _368  and  _369
REMARK  151  A    between atoms: _368  and  _371
REMARK  152  A    between atoms: _371  and  _372
REMARK  153  A    between atoms: _374  and  _376
REMARK  154  A    between atoms: _376  and  _377
REMARK  155  A    between atoms: _376  and  _379
REMARK  156  A    between atoms: _379  and  _380
REMARK  157  A    between atoms: _382  and  _384
REMARK  158  A    between atoms: _384  and  _385
REMARK  159  A    between atoms: _384  and  _387
REMARK  160  A    between atoms: _387  and  _388
REMARK  161  A    between atoms: _391  and  _393
REMARK  162  A    between atoms: _393  and  _394
REMARK  163  A    between atoms: _393  and  _396
REMARK  164  A    between atoms: _396  and  _397
REMARK  165  A    between atoms: _397  and  _398
REMARK  166  A    between atoms: _401  and  _403
REMARK  167  A    between atoms: _403  and  _404
REMARK  168  A    between atoms: _403  and  _406
REMARK  169  A    between atoms: _406  and  _407
REMARK  170  A    between atoms: _412  and  _413
REMARK  171  A    between atoms: _415  and  _417
REMARK  172  A    between atoms: _417  and  _418
REMARK  173  A    between atoms: _417  and  _420
REMARK  174  A    between atoms: _420  and  _421
REMARK  175  A    between atoms: _424  and  _426
REMARK  176  A    between atoms: _426  and  _427
REMARK  177  A    between atoms: _426  and  _429
REMARK  178  A    between atoms: _429  and  _430
REMARK  179  A    between atoms: _433  and  _435
REMARK  180  A    between atoms: _435  and  _436
REMARK  181  A    between atoms: _435  and  _438
REMARK  182  A    between atoms: _438  and  _439
REMARK  183  A    between atoms: _439  and  _440
REMARK  184  A    between atoms: _440  and  _441
REMARK  185  A    between atoms: _450  and  _452
REMARK  186  A    between atoms: _452  and  _453
REMARK  187  A    between atoms: _452  and  _455
REMARK  188  A    between atoms: _458  and  _460
REMARK  189  A    between atoms: _460  and  _461
REMARK  190  A    between atoms: _460  and  _463
REMARK  191  A    between atoms: _463  and  _464
REMARK  192  A    between atoms: _467  and  _469
REMARK  193  A    between atoms: _469  and  _470
REMARK  194  A    between atoms: _469  and  _472
REMARK  195  A    between atoms: _474  and  _476
REMARK  196  A    between atoms: _476  and  _477
REMARK  197  A    between atoms: _476  and  _479
REMARK  198  A    between atoms: _479  and  _480
REMARK  199  A    between atoms: _490  and  _492
REMARK  200  A    between atoms: _492  and  _493
REMARK  201  A    between atoms: _492  and  _495
REMARK  202  A    between atoms: _495  and  _496
REMARK  203  A    between atoms: _496  and  _497
REMARK  204  A    between atoms: _497  and  _498
REMARK  205  A    between atoms: _498  and  _499
REMARK  206  A    between atoms: _503  and  _505
REMARK  207  A    between atoms: _505  and  _506
REMARK  208  A    between atoms: _505  and  _508
REMARK  209  A    between atoms: _508  and  _509
REMARK  210  A    between atoms: _512  and  _513
REMARK  211  A    between atoms: _519  and  _520
REMARK  212  A    between atoms: _525  and  _527
REMARK  213  A    between atoms: _527  and  _528
REMARK  214  A    between atoms: _527  and  _530
REMARK  215  A    between atoms: _530  and  _531
REMARK  216  A    between atoms: _531  and  _532
REMARK  217  A    between atoms: _535  and  _537
REMARK  218  A    between atoms: _537  and  _538
REMARK  219  A    between atoms: _537  and  _540
REMARK  220  A    between atoms: _540  and  _541
REMARK  221  A    between atoms: _541  and  _542
REMARK  222  A    between atoms: _542  and  _543
REMARK  223  A    between atoms: _552  and  _554
REMARK  224  A    between atoms: _554  and  _555
REMARK  225  A    between atoms: _554  and  _557
REMARK  226  A    between atoms: _557  and  _558
REMARK  227  A    between atoms: _561  and  _563
REMARK  228  A    between atoms: _563  and  _564
REMARK  229  A    between atoms: _563  and  _566
REMARK  230  A    between atoms: _566  and  _567
REMARK  231  A    between atoms: _569  and  _571
REMARK  232  A    between atoms: _571  and  _572
REMARK  233  A    between atoms: _571  and  _574
REMARK  234  A    between atoms: _574  and  _575
REMARK  235  A    between atoms: _575  and  _576
REMARK  236  A    between atoms: _576  and  _577
REMARK  237  A    between atoms: _577  and  _578
REMARK  238  A    between atoms: _582  and  _584
REMARK  239  A    between atoms: _584  and  _585
REMARK  240  A    between atoms: _584  and  _587
REMARK  241  A    between atoms: _587  and  _588
REMARK  242  A    between atoms: _591  and  _593
REMARK  243  A    between atoms: _593  and  _594
REMARK  244  A    between atoms: _596  and  _598
REMARK  245  A    between atoms: _598  and  _599
REMARK  246  A    between atoms: _598  and  _601
REMARK  247  A    between atoms: _601  and  _602
REMARK  248  A    between atoms: _604  and  _606
REMARK  249  A    between atoms: _606  and  _607
REMARK  250  A    between atoms: _609  and  _611
REMARK  251  A    between atoms: _611  and  _612
REMARK  252  A    between atoms: _611  and  _614
REMARK  253  A    between atoms: _614  and  _615
REMARK  254  A    between atoms: _620  and  _622
REMARK  255  A    between atoms: _622  and  _623
REMARK  256  A    between atoms: _622  and  _625
REMARK  257  A    between atoms: _625  and  _626
REMARK  258  A    between atoms: _629  and  _631
REMARK  259  A    between atoms: _631  and  _632
REMARK  260  A    between atoms: _631  and  _634
REMARK  261  A    between atoms: _634  and  _635
REMARK  262  A    between atoms: _641  and  _643
REMARK  263  A    between atoms: _643  and  _644
REMARK  264  A    between atoms: _643  and  _646
REMARK  265  A    between atoms: _646  and  _647
REMARK  266  A    between atoms: _647  and  _648
REMARK  267  A    between atoms: _651  and  _653
REMARK  268  A    between atoms: _653  and  _654
REMARK  269  A    between atoms: _653  and  _656
REMARK  270  A    between atoms: _656  and  _657
REMARK  271  A    between atoms: _657  and  _658
REMARK  272  A    between atoms: _663  and  _665
REMARK  273  A    between atoms: _665  and  _666
REMARK  274  A    between atoms: _665  and  _668
REMARK  275  A    between atoms: _668  and  _669
REMARK  276  A    between atoms: _669  and  _670
REMARK  277  A    between atoms: _670  and  _671
REMARK  278  A    between atoms: _680  and  _682
REMARK  279  A    between atoms: _682  and  _683
REMARK  280  A    between atoms: _682  and  _685
REMARK  281  A    between atoms: _685  and  _686
REMARK  282  A    between atoms: _686  and  _687
REMARK  283  A    between atoms: _687  and  _688
REMARK  284  A    between atoms: _697  and  _699
REMARK  285  A    between atoms: _699  and  _700
REMARK  286  A    between atoms: _699  and  _702
REMARK  287  A    between atoms: _702  and  _703
REMARK  288  A    between atoms: _708  and  _709
REMARK  289  A    between atoms: _711  and  _713
REMARK  290  A    between atoms: _713  and  _714
REMARK  291  A    between atoms: _713  and  _716
REMARK  292  A    between atoms: _716  and  _717
REMARK  293  A    between atoms: _720  and  _722
REMARK  294  A    between atoms: _722  and  _723
REMARK  295  A    between atoms: _722  and  _725
REMARK  296  A    between atoms: _725  and  _726
REMARK  297  A    between atoms: _726  and  _727
REMARK  298  A    between atoms: _727  and  _728
REMARK  299  A    between atoms: _728  and  _729
REMARK  300  A    between atoms: _733  and  _735
REMARK  301  A    between atoms: _735  and  _736
REMARK  302  A    between atoms: _735  and  _738
REMARK  303  A    between atoms: _738  and  _739
REMARK  304  A    between atoms: _744  and  _746
REMARK  305  A    between atoms: _746  and  _747
REMARK  306  A    between atoms: _746  and  _749
REMARK  307  A    between atoms: _749  and  _750
REMARK  308  A    between atoms: _760  and  _762
REMARK  309  A    between atoms: _762  and  _763
REMARK  310  A    between atoms: _762  and  _765
REMARK  311  A    between atoms: _765  and  _766
REMARK  312  A    between atoms: _766  and  _767
REMARK  313  A    between atoms: _770  and  _772
REMARK  314  A    between atoms: _772  and  _773
REMARK  315  A    between atoms: _772  and  _775
REMARK  316  A    between atoms: _775  and  _776
REMARK  317  A    between atoms: _779  and  _781
REMARK  318  A    between atoms: _781  and  _782
REMARK  319  A    between atoms: _781  and  _784
REMARK  320  A    between atoms: _784  and  _785
REMARK  321  A    between atoms: _790  and  _792
REMARK  322  A    between atoms: _792  and  _793
REMARK  323  A    between atoms: _792  and  _795
REMARK  324  A    between atoms: _795  and  _796
REMARK  325  A    between atoms: _802  and  _804
REMARK  326  A    between atoms: _804  and  _805
REMARK  327  A    between atoms: _804  and  _807
REMARK  328  A    between atoms: _807  and  _808
REMARK  329  A    between atoms: _810  and  _812
REMARK  330  A    between atoms: _812  and  _813
REMARK  331  A    between atoms: _815  and  _817
REMARK  332  A    between atoms: _817  and  _818
REMARK  333  A    between atoms: _817  and  _820
REMARK  334  A    between atoms: _820  and  _821
REMARK  335  A    between atoms: _826  and  _827
REMARK  336  A    between atoms: _829  and  _831
REMARK  337  A    between atoms: _831  and  _832
REMARK  338  A    between atoms: _831  and  _834
REMARK  339  A    between atoms: _834  and  _835
REMARK  340  A    between atoms: _840  and  _841
REMARK  341  A    between atoms: _843  and  _845
REMARK  342  A    between atoms: _845  and  _846
REMARK  343  A    between atoms: _845  and  _848
REMARK  344  A    between atoms: _848  and  _849
REMARK  345  A    between atoms: _853  and  ZN_1037
REMARK  346  A    between atoms: _854  and  _856
REMARK  347  A    between atoms: _856  and  _857
REMARK  348  A    between atoms: _856  and  _859
REMARK  349  A    between atoms: _859  and  _860
REMARK  350  A    between atoms: _860  and  _861
REMARK  351  A    between atoms: _864  and  _866
REMARK  352  A    between atoms: _866  and  _867
REMARK  353  A    between atoms: _866  and  _869
REMARK  354  A    between atoms: _869  and  _870
REMARK  355  A    between atoms: _870  and  _871
REMARK  356  A    between atoms: _871  and  _872
REMARK  357  A    between atoms: _881  and  _883
REMARK  358  A    between atoms: _883  and  _884
REMARK  359  A    between atoms: _883  and  _886
REMARK  360  A    between atoms: _886  and  _887
REMARK  361  A    between atoms: _887  and  _888
REMARK  362  A    between atoms: _888  and  _889
REMARK  363  A    between atoms: _889  and  _890
REMARK  364  A    between atoms: _894  and  _896
REMARK  365  A    between atoms: _896  and  _897
REMARK  366  A    between atoms: _896  and  _899
REMARK  367  A    between atoms: _899  and  _900
REMARK  368  A    between atoms: _905  and  _906
REMARK  369  A    between atoms: _908  and  _910
REMARK  370  A    between atoms: _910  and  _911
REMARK  371  A    between atoms: _910  and  _913
REMARK  372  A    between atoms: _913  and  _914
REMARK  373  A    between atoms: _914  and  _915
REMARK  374  A    between atoms: _915  and  _916
REMARK  375  A    between atoms: _916  and  _917
REMARK  376  A    between atoms: _921  and  _923
REMARK  377  A    between atoms: _923  and  _924
REMARK  378  A    between atoms: _923  and  _926
REMARK  379  A    between atoms: _926  and  _927
REMARK  380  A    between atoms: _932  and  _933
REMARK  381  A    between atoms: _935  and  _937
REMARK  382  A    between atoms: _937  and  _938
REMARK  383  A    between atoms: _937  and  _940
REMARK  384  A    between atoms: _940  and  _941
REMARK  385  A    between atoms: _946  and  _947
REMARK  386  A    between atoms: _949  and  _951
REMARK  387  A    between atoms: _951  and  _952
REMARK  388  A    between atoms: _956  and  _957
REMARK  389  A    between atoms: _962  and  _964
REMARK  390  A    between atoms: _964  and  _965
REMARK  391  A    between atoms: _964  and  _967
REMARK  392  A    between atoms: _967  and  _968
REMARK  393  A    between atoms: _970  and  _972
REMARK  394  A    between atoms: _972  and  _973
REMARK  395  A    between atoms: _972  and  _975
REMARK  396  A    between atoms: _975  and  _976
REMARK  397  A    between atoms: _981  and  _983
REMARK  398  A    between atoms: _983  and  _984
REMARK  399  A    between atoms: _983  and  _986
REMARK  400  A    between atoms: _986  and  _987
REMARK  401  A    between atoms: _987  and  _988
REMARK  402  A    between atoms: _988  and  _989
REMARK  403  A    between atoms: _989  and  _990
REMARK  404  A    between atoms: _994  and  _996
REMARK  405  A    between atoms: _996  and  _997
REMARK  406  A    between atoms: _996  and  _999
REMARK  407  A    between atoms: _999  and  _1000
REMARK  408  A    between atoms: _1005  and  _1006
REMARK  409  A    between atoms: _1008  and  _1010
REMARK  410  A    between atoms: _1010  and  _1011
REMARK  411  A    between atoms: _1014  and  _1016
REMARK  412  A    between atoms: _1016  and  _1017
REMARK  413  A    between atoms: _1019  and  _1021
REMARK  414  A    between atoms: _1021  and  _1022
REMARK  415  A    between atoms: _1021  and  _1024
REMARK  416  A    between atoms: _1024  and  _1025
REMARK  417  A    between atoms: _1025  and  _1026
REMARK  418  A    between atoms: _1029  and  _1031
REMARK  419  A    between atoms: _1031  and  _1032
REMARK  420  A    between atoms: _1031  and  _1034
REMARK  421  A    between atoms: _1034  and  _1035
REMARK                            x       y       z     vdW  Elec       q    Type
REMARK                         _______ _______ _______ _____ _____    ______ ____
ROOT
ATOM      1  CA  GLY A   1       4.607  49.741  40.637  0.00  0.00    +0.156 C 
ENDROOT
BRANCH   1   2
ATOM      2  N   GLY A   1       5.110  50.994  40.073  0.00  0.00    -0.238 NA
ATOM      3  H   GLY A   1       6.123  51.097  39.861  0.00  0.00    +0.142 HD
ENDBRANCH   1   2
BRANCH   1   4
ATOM      4  C   GLY A   1       4.027  48.840  39.526  0.00  0.00    +0.226 C 
ATOM      5  O   GLY A   1       4.511  48.825  38.375  0.00  0.00    -0.287 OA
ENDBRANCH   1   4
TORSDOF 2
REMARK  Name = ../refined-set-2016/2xef/2xef_pocket.pdb
REMARK  421 active torsions:
REMARK  status: ('A' for Active; 'I' for Inactive)
REMARK    1  A    between atoms: _1  and  _3
REMARK    2  A    between atoms: _3  and  _4
REMARK    3  A    between atoms: _7  and  _9
REMARK    4  A    between atoms: _9  and  _10
REMARK    5  A    between atoms: _9  and  _12
REMARK    6  A    between atoms: _12  and  _13
REMARK    7  A    between atoms: _19  and  _21
REMARK    8  A    between atoms: _21  and  _22
REMARK    9  A    between atoms: _21  and  _24
REMARK   10  A    between atoms: _24  and  _25
REMARK   11  A    between atoms: _30  and  _31
REMARK   12  A    between atoms: _33  and  _35
REMARK   13  A    between atoms: _35  and  _36
REMARK   14  A    between atoms: _38  and  _40
REMARK   15  A    between atoms: _40  and  _41
REMARK   16  A    between atoms: _40  and  _43
REMARK   17  A    between atoms: _43  and  _44
REMARK   18  A    between atoms: _44  and  _45
REMARK   19  A    between atoms: _45  and  _46
REMARK   20  A    between atoms: _46  and  _47
REMARK   21  A    between atoms: _51  and  _53
REMARK   22  A    between atoms: _53  and  _54
REMARK   23  A    between atoms: _53  and  _56
REMARK   24  A    between atoms: _59  and  _61
REMARK   25  A    between atoms: _61  and  _62
REMARK   26  A    between atoms: _61  and  _64
REMARK   27  A    between atoms: _64  and  _65
REMARK   28  A    between atoms: _71  and  _73
REMARK   29  A    between atoms: _73  and  _74
REMARK   30  A    between atoms: _73  and  _76
REMARK   31  A    between atoms: _76  and  _77
REMARK   32  A    between atoms: _77  and  _78
REMARK   33  A    between atoms: _78  and  _79
REMARK   34  A    between atoms: _88  and  _90
REMARK   35  A    between atoms: _90  and  _91
REMARK   36  A    between atoms: _93  and  _95
REMARK   37  A    between atoms: _95  and  _96
REMARK   38  A    between atoms: _95  and  _98
REMARK   39  A    between atoms: _98  and  _99
REMARK   40  A    between atoms: _99  and  _100
REMARK   41  A    between atoms: _100  and  _101
REMARK   42  A    between atoms: _101  and  _102
REMARK   43  A    between atoms: _106  and  _108
REMARK   44  A    between atoms: _108  and  _109
REMARK   45  A    between atoms: _108  and  _111
REMARK   46  A    between atoms: _111  and  _112
REMARK   47  A    between atoms: _117  and  _118
REMARK   48  A    between atoms: _120  and  _122
REMARK   49  A    between atoms: _122  and  _123
REMARK   50  A    between atoms: _122  and  _125
REMARK   51  A    between atoms: _125  and  _126
REMARK   52  A    between atoms: _126  and  _127
REMARK   53  A    between atoms: _132  and  _134
REMARK   54  A    between atoms: _134  and  _135
REMARK   55  A    between atoms: _134  and  _137
REMARK   56  A    between atoms: _137  and  _138
REMARK   57  A    between atoms: _138  and  _139
REMARK   58  A    between atoms: _139  and  _140
REMARK   59  A    between atoms: _149  and  _151
REMARK   60  A    between atoms: _151  and  _152
REMARK   61  A    between atoms: _154  and  _156
REMARK   62  A    between atoms: _156  and  _157
REMARK   63  A    between atoms: _156  and  _159
REMARK   64  A    between atoms: _159  and  _160
REMARK   65  A    between atoms: _165  and  _167
REMARK   66  A    between atoms: _167  and  _168
REMARK   67  A    between atoms: _167  and  _170
REMARK   68  A    between atoms: _170  and  _171
REMARK   69  A    between atoms: _174  and  _176
REMARK   70  A    between atoms: _176  and  _177
REMARK   71  A    between atoms: _176  and  _179
REMARK   72  A    between atoms: _179  and  _180
REMARK   73  A    between atoms: _183  and  _185
REMARK   74  A    between atoms: _185  and  _186
REMARK   75  A    between atoms: _185  and  _188
REMARK   76  A    between atoms: _188  and  _189
REMARK   77  A    between atoms: _194  and  _196
REMARK   78  A    between atoms: _196  and  _197
REMARK   79  A    between atoms: _196  and  _199
REMARK   80  A    between atoms: _199  and  _200
REMARK   81  A    between atoms: _203  and  _205
REMARK   82  A    between atoms: _205  and  _206
REMARK   83  A    between atoms: _205  and  _208
REMARK   84  A    between atoms: _208  and  _209
REMARK   85  A    between atoms: _214  and  _216
REMARK   86  A    between atoms: _216  and  _217
REMARK   87  A    between atoms: _219  and  _221
REMARK   88  A    between atoms: _221  and  _222
REMARK   89  A    between atoms: _224  and  _226
REMARK   90  A    between atoms: _226  and  _227
REMARK   91  A    between atoms: _226  and  _229
REMARK   92  A    between atoms: _229  and  _230
REMARK   93  A    between atoms: _234  and  ZN_1038
REMARK   94  A    between atoms: _235  and  _237
REMARK   95  A    between atoms: _237  and  _238
REMARK   96  A    between atoms: _237  and  _240
REMARK   97  A    between atoms: _240  and  _241
REMARK   98  A    between atoms: _244  and  _246
REMARK   99  A    between atoms: _246  and  _247
REMARK  100  A    between atoms: _246  and  _249
REMARK  101  A    between atoms: _249  and  _250
REMARK  102  A    between atoms: _260  and  _262
REMARK  103  A    between atoms: _262  and  _263
REMARK  104  A    between atoms: _262  and  _265
REMARK  105  A    between atoms: _265  and  _266
REMARK  106  A    between atoms: _269  and  _271
REMARK  107  A    between atoms: _271  and  _272
REMARK  108  A    between atoms: _271  and  _274
REMARK  109  A    between atoms: _274  and  _275
REMARK  110  A    between atoms: _279  and  _280
REMARK  111  A    between atoms: _285  and  _287
REMARK  112  A    between atoms: _287  and  _288
REMARK  113  A    between atoms: _291  and  _293
REMARK  114  A    between atoms: _293  and  _294
REMARK  115  A    between atoms: _293  and  _296
REMARK  116  A    between atoms: _296  and  _297
REMARK  117  A    between atoms: _297  and  _298
REMARK  118  A    between atoms: _301  and  _303
REMARK  119  A    between atoms: _303  and  _304
REMARK  120  A    between atoms: _303  and  _306
REMARK  121  A    between atoms: _306  and  _307
REMARK  122  A    between atoms: _307  and  _308
REMARK  123  A    between atoms: _308  and  _310
REMARK  124  A    between atoms: _310  and  ZN_1037
REMARK  125  A    between atoms: _311  and  _313
REMARK  126  A    between atoms: _313  and  _314
REMARK  127  A    between atoms: _313  and  _316
REMARK  128  A    between atoms: _316  and  _317
REMARK  129  A    between atoms: _323  and  _325
REMARK  130  A    between atoms: _325  and  _326
REMARK  131  A    between atoms: _328  and  _330
REMARK  132  A    between atoms: _330  and  _331
REMARK  133  A    between atoms: _330  and  _333
REMARK  134  A    between atoms: _333  and  _334
REMARK  135  A    between atoms: _337  and  _339
REMARK  136  A    between atoms: _339  and  _340
REMARK  137  A    between atoms: _339  and  _342
REMARK  138  A    between atoms: _342  and  _343
REMARK  139  A    between atoms: _346  and  _348
REMARK  140  A    between atoms: _348  and  _349
REMARK  141  A    between atoms: _348  and  _351
REMARK  142  A    between atoms: _351  and  _352
REMARK  143  A    between atoms: _357  and  _359
REMARK  144  A    between atoms: _359  and  _360
REMARK  145  A    between atoms: _359  and  _362
REMARK  146  A    between atoms: _362  and  _363
REMARK  147  A    between atoms: _363  and  _365
REMARK  148  A    between atoms: _365  and  ZN_1038
REMARK  149  A    between atoms: _366  and  _368
REMARK  150  A    between atoms: _368  and  _369
REMARK  151  A    between atoms: _368  and  _371
REMARK  152  A    between atoms: _371  and  _372
REMARK  153  A    between atoms: _374  and  _376
REMARK  154  A    between atoms: _376  and  _377
REMARK  155  A    between atoms: _376  and  _379
REMARK  156  A    between atoms: _379  and  _380
REMARK  157  A    between atoms: _382  and  _384
REMARK  158  A    between atoms: _384  and  _385
REMARK  159  A    between atoms: _384  and  _387
REMARK  160  A    between atoms: _387  and  _388
REMARK  161  A    between atoms: _391  and  _393
REMARK  162  A    between atoms: _393  and  _394
REMARK  163  A    between atoms: _393  and  _396
REMARK  164  A    between atoms: _396  and  _397
REMARK  165  A    between atoms: _397  and  _398
REMARK  166  A    between atoms: _401  and  _403
REMARK  167  A    between atoms: _403  and  _404
REMARK  168  A    between atoms: _403  and  _406
REMARK  169  A    between atoms: _406  and  _407
REMARK  170  A    between atoms: _412  and  _413
REMARK  171  A    between atoms: _415  and  _417
REMARK  172  A    between atoms: _417  and  _418
REMARK  173  A    between atoms: _417  and  _420
REMARK  174  A    between atoms: _420  and  _421
REMARK  175  A    between atoms: _424  and  _426
REMARK  176  A    between atoms: _426  and  _427
REMARK  177  A    between atoms: _426  and  _429
REMARK  178  A    between atoms: _429  and  _430
REMARK  179  A    between atoms: _433  and  _435
REMARK  180  A    between atoms: _435  and  _436
REMARK  181  A    between atoms: _435  and  _438
REMARK  182  A    between atoms: _438  and  _439
REMARK  183  A    between atoms: _439  and  _440
REMARK  184  A    between atoms: _440  and  _441
REMARK  185  A    between atoms: _450  and  _452
REMARK  186  A    between atoms: _452  and  _453
REMARK  187  A    between atoms: _452  and  _455
REMARK  188  A    between atoms: _458  and  _460
REMARK  189  A    between atoms: _460  and  _461
REMARK  190  A    between atoms: _460  and  _463
REMARK  191  A    between atoms: _463  and  _464
REMARK  192  A    between atoms: _467  and  _469
REMARK  193  A    between atoms: _469  and  _470
REMARK  194  A    between atoms: _469  and  _472
REMARK  195  A    between atoms: _474  and  _476
REMARK  196  A    between atoms: _476  and  _477
REMARK  197  A    between atoms: _476  and  _479
REMARK  198  A    between atoms: _479  and  _480
REMARK  199  A    between atoms: _490  and  _492
REMARK  200  A    between atoms: _492  and  _493
REMARK  201  A    between atoms: _492  and  _495
REMARK  202  A    between atoms: _495  and  _496
REMARK  203  A    between atoms: _496  and  _497
REMARK  204  A    between atoms: _497  and  _498
REMARK  205  A    between atoms: _498  and  _499
REMARK  206  A    between atoms: _503  and  _505
REMARK  207  A    between atoms: _505  and  _506
REMARK  208  A    between atoms: _505  and  _508
REMARK  209  A    between atoms: _508  and  _509
REMARK  210  A    between atoms: _512  and  _513
REMARK  211  A    between atoms: _519  and  _520
REMARK  212  A    between atoms: _525  and  _527
REMARK  213  A    between atoms: _527  and  _528
REMARK  214  A    between atoms: _527  and  _530
REMARK  215  A    between atoms: _530  and  _531
REMARK  216  A    between atoms: _531  and  _532
REMARK  217  A    between atoms: _535  and  _537
REMARK  218  A    between atoms: _537  and  _538
REMARK  219  A    between atoms: _537  and  _540
REMARK  220  A    between atoms: _540  and  _541
REMARK  221  A    between atoms: _541  and  _542
REMARK  222  A    between atoms: _542  and  _543
REMARK  223  A    between atoms: _552  and  _554
REMARK  224  A    between atoms: _554  and  _555
REMARK  225  A    between atoms: _554  and  _557
REMARK  226  A    between atoms: _557  and  _558
REMARK  227  A    between atoms: _561  and  _563
REMARK  228  A    between atoms: _563  and  _564
REMARK  229  A    between atoms: _563  and  _566
REMARK  230  A    between atoms: _566  and  _567
REMARK  231  A    between atoms: _569  and  _571
REMARK  232  A    between atoms: _571  and  _572
REMARK  233  A    between atoms: _571  and  _574
REMARK  234  A    between atoms: _574  and  _575
REMARK  235  A    between atoms: _575  and  _576
REMARK  236  A    between atoms: _576  and  _577
REMARK  237  A    between atoms: _577  and  _578
REMARK  238  A    between atoms: _582  and  _584
REMARK  239  A    between atoms: _584  and  _585
REMARK  240  A    between atoms: _584  and  _587
REMARK  241  A    between atoms: _587  and  _588
REMARK  242  A    between atoms: _591  and  _593
REMARK  243  A    between atoms: _593  and  _594
REMARK  244  A    between atoms: _596  and  _598
REMARK  245  A    between atoms: _598  and  _599
REMARK  246  A    between atoms: _598  and  _601
REMARK  247  A    between atoms: _601  and  _602
REMARK  248  A    between atoms: _604  and  _606
REMARK  249  A    between atoms: _606  and  _607
REMARK  250  A    between atoms: _609  and  _611
REMARK  251  A    between atoms: _611  and  _612
REMARK  252  A    between atoms: _611  and  _614
REMARK  253  A    between atoms: _614  and  _615
REMARK  254  A    between atoms: _620  and  _622
REMARK  255  A    between atoms: _622  and  _623
REMARK  256  A    between atoms: _622  and  _625
REMARK  257  A    between atoms: _625  and  _626
REMARK  258  A    between atoms: _629  and  _631
REMARK  259  A    between atoms: _631  and  _632
REMARK  260  A    between atoms: _631  and  _634
REMARK  261  A    between atoms: _634  and  _635
REMARK  262  A    between atoms: _641  and  _643
REMARK  263  A    between atoms: _643  and  _644
REMARK  264  A    between atoms: _643  and  _646
REMARK  265  A    between atoms: _646  and  _647
REMARK  266  A    between atoms: _647  and  _648
REMARK  267  A    between atoms: _651  and  _653
REMARK  268  A    between atoms: _653  and  _654
REMARK  269  A    between atoms: _653  and  _656
REMARK  270  A    between atoms: _656  and  _657
REMARK  271  A    between atoms: _657  and  _658
REMARK  272  A    between atoms: _663  and  _665
REMARK  273  A    between atoms: _665  and  _666
REMARK  274  A    between atoms: _665  and  _668
REMARK  275  A    between atoms: _668  and  _669
REMARK  276  A    between atoms: _669  and  _670
REMARK  277  A    between atoms: _670  and  _671
REMARK  278  A    between atoms: _680  and  _682
REMARK  279  A    between atoms: _682  and  _683
REMARK  280  A    between atoms: _682  and  _685
REMARK  281  A    between atoms: _685  and  _686
REMARK  282  A    between atoms: _686  and  _687
REMARK  283  A    between atoms: _687  and  _688
REMARK  284  A    between atoms: _697  and  _699
REMARK  285  A    between atoms: _699  and  _700
REMARK  286  A    between atoms: _699  and  _702
REMARK  287  A    between atoms: _702  and  _703
REMARK  288  A    between atoms: _708  and  _709
REMARK  289  A    between atoms: _711  and  _713
REMARK  290  A    between atoms: _713  and  _714
REMARK  291  A    between atoms: _713  and  _716
REMARK  292  A    between atoms: _716  and  _717
REMARK  293  A    between atoms: _720  and  _722
REMARK  294  A    between atoms: _722  and  _723
REMARK  295  A    between atoms: _722  and  _725
REMARK  296  A    between atoms: _725  and  _726
REMARK  297  A    between atoms: _726  and  _727
REMARK  298  A    between atoms: _727  and  _728
REMARK  299  A    between atoms: _728  and  _729
REMARK  300  A    between atoms: _733  and  _735
REMARK  301  A    between atoms: _735  and  _736
REMARK  302  A    between atoms: _735  and  _738
REMARK  303  A    between atoms: _738  and  _739
REMARK  304  A    between atoms: _744  and  _746
REMARK  305  A    between atoms: _746  and  _747
REMARK  306  A    between atoms: _746  and  _749
REMARK  307  A    between atoms: _749  and  _750
REMARK  308  A    between atoms: _760  and  _762
REMARK  309  A    between atoms: _762  and  _763
REMARK  310  A    between atoms: _762  and  _765
REMARK  311  A    between atoms: _765  and  _766
REMARK  312  A    between atoms: _766  and  _767
REMARK  313  A    between atoms: _770  and  _772
REMARK  314  A    between atoms: _772  and  _773
REMARK  315  A    between atoms: _772  and  _775
REMARK  316  A    between atoms: _775  and  _776
REMARK  317  A    between atoms: _779  and  _781
REMARK  318  A    between atoms: _781  and  _782
REMARK  319  A    between atoms: _781  and  _784
REMARK  320  A    between atoms: _784  and  _785
REMARK  321  A    between atoms: _790  and  _792
REMARK  322  A    between atoms: _792  and  _793
REMARK  323  A    between atoms: _792  and  _795
REMARK  324  A    between atoms: _795  and  _796
REMARK  325  A    between atoms: _802  and  _804
REMARK  326  A    between atoms: _804  and  _805
REMARK  327  A    between atoms: _804  and  _807
REMARK  328  A    between atoms: _807  and  _808
REMARK  329  A    between atoms: _810  and  _812
REMARK  330  A    between atoms: _812  and  _813
REMARK  331  A    between atoms: _815  and  _817
REMARK  332  A    between atoms: _817  and  _818
REMARK  333  A    between atoms: _817  and  _820
REMARK  334  A    between atoms: _820  and  _821
REMARK  335  A    between atoms: _826  and  _827
REMARK  336  A    between atoms: _829  and  _831
REMARK  337  A    between atoms: _831  and  _832
REMARK  338  A    between atoms: _831  and  _834
REMARK  339  A    between atoms: _834  and  _835
REMARK  340  A    between atoms: _840  and  _841
REMARK  341  A    between atoms: _843  and  _845
REMARK  342  A    between atoms: _845  and  _846
REMARK  343  A    between atoms: _845  and  _848
REMARK  344  A    between atoms: _848  and  _849
REMARK  345  A    between atoms: _853  and  ZN_1037
REMARK  346  A    between atoms: _854  and  _856
REMARK  347  A    between atoms: _856  and  _857
REMARK  348  A    between atoms: _856  and  _859
REMARK  349  A    between atoms: _859  and  _860
REMARK  350  A    between atoms: _860  and  _861
REMARK  351  A    between atoms: _864  and  _866
REMARK  352  A    between atoms: _866  and  _867
REMARK  353  A    between atoms: _866  and  _869
REMARK  354  A    between atoms: _869  and  _870
REMARK  355  A    between atoms: _870  and  _871
REMARK  356  A    between atoms: _871  and  _872
REMARK  357  A    between atoms: _881  and  _883
REMARK  358  A    between atoms: _883  and  _884
REMARK  359  A    between atoms: _883  and  _886
REMARK  360  A    between atoms: _886  and  _887
REMARK  361  A    between atoms: _887  and  _888
REMARK  362  A    between atoms: _888  and  _889
REMARK  363  A    between atoms: _889  and  _890
REMARK  364  A    between atoms: _894  and  _896
REMARK  365  A    between atoms: _896  and  _897
REMARK  366  A    between atoms: _896  and  _899
REMARK  367  A    between atoms: _899  and  _900
REMARK  368  A    between atoms: _905  and  _906
REMARK  369  A    between atoms: _908  and  _910
REMARK  370  A    between atoms: _910  and  _911
REMARK  371  A    between atoms: _910  and  _913
REMARK  372  A    between atoms: _913  and  _914
REMARK  373  A    between atoms: _914  and  _915
REMARK  374  A    between atoms: _915  and  _916
REMARK  375  A    between atoms: _916  and  _917
REMARK  376  A    between atoms: _921  and  _923
REMARK  377  A    between atoms: _923  and  _924
REMARK  378  A    between atoms: _923  and  _926
REMARK  379  A    between atoms: _926  and  _927
REMARK  380  A    between atoms: _932  and  _933
REMARK  381  A    between atoms: _935  and  _937
REMARK  382  A    between atoms: _937  and  _938
REMARK  383  A    between atoms: _937  and  _940
REMARK  384  A    between atoms: _940  and  _941
REMARK  385  A    between atoms: _946  and  _947
REMARK  386  A    between atoms: _949  and  _951
REMARK  387  A    between atoms: _951  and  _952
REMARK  388  A    between atoms: _956  and  _957
REMARK  389  A    between atoms: _962  and  _964
REMARK  390  A    between atoms: _964  and  _965
REMARK  391  A    between atoms: _964  and  _967
REMARK  392  A    between atoms: _967  and  _968
REMARK  393  A    between atoms: _970  and  _972
REMARK  394  A    between atoms: _972  and  _973
REMARK  395  A    between atoms: _972  and  _975
REMARK  396  A    between atoms: _975  and  _976
REMARK  397  A    between atoms: _981  and  _983
REMARK  398  A    between atoms: _983  and  _984
REMARK  399  A    between atoms: _983  and  _986
REMARK  400  A    between atoms: _986  and  _987
REMARK  401  A    between atoms: _987  and  _988
REMARK  402  A    between atoms: _988  and  _989
REMARK  403  A    between atoms: _989  and  _990
REMARK  404  A    between atoms: _994  and  _996
REMARK  405  A    between atoms: _996  and  _997
REMARK  406  A    between atoms: _996  and  _999
REMARK  407  A    between atoms: _999  and  _1000
REMARK  408  A    between atoms: _1005  and  _1006
REMARK  409  A    between atoms: _1008  and  _1010
REMARK  410  A    between atoms: _1010  and  _1011
REMARK  411  A    between atoms: _1014  and  _1016
REMARK  412  A    between atoms: _1016  and  _1017
REMARK  413  A    between atoms: _1019  and  _1021
REMARK  414  A    between atoms: _1021  and  _1022
REMARK  415  A    between atoms: _1021  and  _1024
REMARK  416  A    between atoms: _1024  and  _1025
REMARK  417  A    between atoms: _1025  and  _1026
REMARK  418  A    between atoms: _1029  and  _1031
REMARK  419  A    between atoms: _1031  and  _1032
REMARK  420  A    between atoms: _1031  and  _1034
REMARK  421  A    between atoms: _1034  and  _1035
REMARK                            x       y       z     vdW  Elec       q    Type
REMARK                         _______ _______ _______ _____ _____    ______ ____
ROOT
ATOM      1 ZN   UNK A   1      16.724  41.823  46.346  0.00  0.00    +0.000 Zn
ATOM      2  O   UNK A   1      17.812  40.143  46.350  0.00  0.00    +0.000 OA
ATOM      3  C   UNK A   1      18.800  39.954  45.632  0.00  0.00    +0.000 C 
ATOM      4  O   UNK A   1      18.977  40.434  44.481  0.00  0.00    +0.000 OA
ATOM      5 ZN   UNK A   1      17.480  41.124  43.207  0.00  0.00    +0.000 Zn
ATOM      6  O   UNK A   1      16.627  42.389  44.545  0.00  0.00    +0.000 OA
ENDROOT
BRANCH   5   7
ATOM      7  N   UNK A   1      18.475  40.299  41.581  0.00  0.00    +0.000 N 
ATOM      8  C   UNK A   1      19.314  39.211  41.451  0.00  0.00    +0.000 A 
ATOM      9  C   UNK A   1      19.485  39.006  40.126  0.00  0.00    +0.000 A 
ATOM     10  N   UNK A   1      18.822  40.026  39.481  0.00  0.00    +0.000 NA
ATOM     11  C   UNK A   1      18.240  40.812  40.391  0.00  0.00    +0.000 A 
BRANCH   9  12
ATOM     12  C   UNK A   1      20.239  37.922  39.387  0.00  0.00    +0.000 C 
BRANCH  12  13
ATOM     13  C   UNK A   1      20.756  36.781  40.294  0.00  0.00    +0.000 C 
BRANCH  13  14
ATOM     14  N   UNK A   1      21.938  37.212  41.104  0.00  0.00    +0.000 N 
ATOM     15  H   UNK A   1      21.854  37.174  42.140  0.00  0.00    +0.000 HD
ATOM     16  C   UNK A   1      23.103  37.646  40.586  0.00  0.00    +0.000 C 
ATOM     17  O   UNK A   1      23.364  37.648  39.367  0.00  0.00    +0.000 OA
BRANCH  16  18
ATOM     18  C   UNK A   1      24.100  38.193  41.593  0.00  0.00    +0.000 C 
BRANCH  18  19
ATOM     19  N   UNK A   1      25.402  37.497  41.562  0.00  0.00    +0.000 NA
ATOM     20  H   UNK A   1      26.276  38.061  41.566  0.00  0.00    +0.000 HD
ENDBRANCH  18  19
BRANCH  18  21
ATOM     21  C   UNK A   1      24.422  39.666  41.354  0.00  0.00    +0.000 C 
BRANCH  21  22
ATOM     22  C   UNK A   1      23.218  40.598  41.147  0.00  0.00    +0.000 A 
ATOM     23  C   UNK A   1      22.352  40.874  42.182  0.00  0.00    +0.000 A 
ATOM     24  C   UNK A   1      21.288  41.766  41.982  0.00  0.00    +0.000 A 
ATOM     25  C   UNK A   1      21.136  42.373  40.720  0.00  0.00    +0.000 A 
ATOM     26  C   UNK A   1      22.002  42.120  39.701  0.00  0.00    +0.000 A 
ATOM     27  C   UNK A   1      23.020  41.213  39.900  0.00  0.00    +0.000 A 
BRANCH  25  28
ATOM     28  O   UNK A   1      20.088  43.243  40.430  0.00  0.00    +0.000 OA
ATOM     29  H   UNK A   1      19.523  43.357  41.235  0.00  0.00    +0.000 HD
ENDBRANCH  25  28
ENDBRANCH  21  22
ENDBRANCH  18  21
ENDBRANCH  16  18
ENDBRANCH  13  14
BRANCH  13  30
ATOM     30  C   UNK A   1      21.037  35.540  39.454  0.00  0.00    +0.000 C 
ATOM     31  O   UNK A   2      20.310  35.275  38.476  0.00  0.00    +0.000 OA
ENDBRANCH  13  30
ENDBRANCH  12  13
ENDBRANCH   9  12
ENDBRANCH   5   7
BRANCH   1  34
ATOM     32  C   UNK A   1      12.902  41.318  47.915  0.00  0.00    +0.000 A 
ATOM     33  C   UNK A   1      14.093  41.981  47.802  0.00  0.00    +0.000 A 
ATOM     34  N   UNK A   1      14.886  41.261  46.926  0.00  0.00    +0.000 N 
ATOM     35  C   UNK A   1      14.211  40.198  46.515  0.00  0.00    +0.000 A 
ATOM     36  N   UNK A   1      13.016  40.206  47.110  0.00  0.00    +0.000 NA
BRANCH  32  37
ATOM     37  C   UNK A   1      11.613  41.634  48.627  0.00  0.00    +0.000 C 
BRANCH  37  38
ATOM     38  C   UNK A   1      11.535  41.259  50.121  0.00  0.00    +0.000 C 
BRANCH  38  39
ATOM     39  N   UNK A   1      12.283  42.250  50.880  0.00  0.00    +0.000 NA
ATOM     40  H   UNK A   1      13.161  42.668  50.511  0.00  0.00    +0.000 HD
ENDBRANCH  38  39
BRANCH  38  41
ATOM     41  C   UNK A   1      11.905  39.831  50.408  0.00  0.00    +0.000 C 
ATOM     42  O   UNK A   1      12.977  39.531  50.978  0.00  0.00    +0.000 OA
ENDBRANCH  38  41
ENDBRANCH  37  38
ENDBRANCH  32  37
ENDBRANCH   1  34
BRANCH   5  43
ATOM     43  O   UNK A   1      15.993  39.634  43.543  0.00  0.00    +0.000 OA
BRANCH  43  44
ATOM     44  C   UNK A   1      15.149  40.036  42.716  0.00  0.00    +0.000 C 
ATOM     45  O   UNK A   1      15.428  40.976  41.940  0.00  0.00    +0.000 OA
BRANCH  44  46
ATOM     46  C   UNK A   1      13.727  39.376  42.711  0.00  0.00    +0.000 C 
BRANCH  46  47
ATOM     47  C   UNK A   1      12.829  39.813  41.545  0.00  0.00    +0.000 C 
BRANCH  47  48
ATOM     48  C   UNK A   1      12.379  41.259  41.564  0.00  0.00    +0.000 C 
BRANCH  48  49
ATOM     49  C   UNK A   1      11.723  41.680  40.262  0.00  0.00    +0.000 C 
ATOM     50  N   PHE A   4      10.385  41.826  40.297  0.00  0.00    +0.000 N 
ATOM     51  H   PHE A   4       9.873  41.698  41.193  0.00  0.00    +0.000 HD
ATOM     52  O   UNK A   1      12.406  41.836  39.217  0.00  0.00    +0.000 OA
BRANCH  50  53
ATOM     53  CA  PHE A   4       9.650  42.164  39.078  0.00  0.00    +0.000 C 
BRANCH  53  54
ATOM     54  C   PHE A   4       9.292  43.647  39.008  0.00  0.00    +0.000 C 
ATOM     55  N   GLY A   5       9.975  44.468  39.850  0.00  0.00    +0.000 N 
ATOM     56  H   GLY A   5      10.631  44.060  40.547  0.00  0.00    +0.000 HD
ATOM     57  O   PHE A   4       8.397  44.030  38.220  0.00  0.00    +0.000 OA
BRANCH  55  58
ATOM     58  CA  GLY A   5       9.795  45.932  39.785  0.00  0.00    +0.000 C 
BRANCH  58  59
ATOM     59  C   GLY A   5       9.254  46.558  41.053  0.00  0.00    +0.000 C 
ATOM     60  N   LEU A   6       9.617  45.984  42.204  0.00  0.00    +0.000 N 
ATOM     61  H   LEU A   6      10.161  45.098  42.189  0.00  0.00    +0.000 HD
ATOM     62  O   GLY A   5       8.515  47.589  40.973  0.00  0.00    +0.000 OA
BRANCH  60  63
ATOM     63  CA  LEU A   6       9.256  46.592  43.487  0.00  0.00    +0.000 C 
BRANCH  63  64
ATOM     64  C   LEU A   6       7.709  46.581  43.593  0.00  0.00    +0.000 C 
ATOM     65  O   LEU A   6       7.062  47.444  44.232  0.00  0.00    +0.000 OA
ATOM     66  N   LEU A   7       7.111  45.491  43.097  0.00  0.00    +0.000 N 
ATOM     67  H   LEU A   7       7.669  44.661  42.814  0.00  0.00    +0.000 HD
BRANCH  66  68
ATOM     68  CA  LEU A   7       5.636  45.494  42.960  0.00  0.00    +0.000 C 
BRANCH  68  69
ATOM     69  C   LEU A   7       4.891  45.369  44.289  0.00  0.00    +0.000 C 
ATOM     70  O   LEU A   7       3.868  46.073  44.480  0.00  0.00    +0.000 OA
ENDBRANCH  68  69
BRANCH  68  71
ATOM     71  CB  LEU A   7       5.167  44.427  41.952  0.00  0.00    +0.000 C 
BRANCH  71  72
ATOM     72  CG  LEU A   7       5.907  44.453  40.626  0.00  0.00    +0.000 C 
ATOM     73  CD2 LEU A   7       5.776  45.806  39.935  0.00  0.00    +0.000 C 
ATOM     74  CD1 LEU A   7       5.268  43.431  39.673  0.00  0.00    +0.000 C 
ENDBRANCH  71  72
ENDBRANCH  68  71
ENDBRANCH  66  68
ENDBRANCH  63  64
BRANCH  63  75
ATOM     75  CB  LEU A   6       9.787  48.051  43.624  0.00  0.00    +0.000 C 
BRANCH  75  76
ATOM     76  CG  LEU A   6      11.172  48.321  43.044  0.00  0.00    +0.000 C 
ATOM     77  CD2 LEU A   6      12.151  47.420  43.752  0.00  0.00    +0.000 C 
ATOM     78  CD1 LEU A   6      11.513  49.781  43.272  0.00  0.00    +0.000 C 
ENDBRANCH  75  76
ENDBRANCH  63  75
ENDBRANCH  60  63
ENDBRANCH  58  59
ENDBRANCH  55  58
ENDBRANCH  53  54
BRANCH  53  79
ATOM     79  CB  PHE A   4       8.376  41.306  39.024  0.00  0.00    +0.000 C 
BRANCH  79  80
ATOM     80  CG  PHE A   4       8.657  39.851  38.692  0.00  0.00    +0.000 A 
ATOM     81  CD2 PHE A   4       9.038  38.932  39.687  0.00  0.00    +0.000 A 
ATOM     82  CE2 PHE A   4       9.326  37.585  39.378  0.00  0.00    +0.000 A 
ATOM     83  CZ  PHE A   4       9.159  37.141  38.071  0.00  0.00    +0.000 A 
ATOM     84  CE1 PHE A   4       8.816  38.056  37.032  0.00  0.00    +0.000 A 
ATOM     85  CD1 PHE A   4       8.585  39.430  37.367  0.00  0.00    +0.000 A 
ENDBRANCH  79  80
ENDBRANCH  53  79
ENDBRANCH  50  53
ENDBRANCH  48  49
BRANCH  48  86
ATOM     86  N   UNK A   1      11.544  41.524  42.727  0.00  0.00    +0.000 N 
ATOM     87  H   UNK A   3      11.194  40.730  43.300  0.00  0.00    +0.000 HD
ATOM     88  C   UNK A   2      11.222  42.780  43.067  0.00  0.00    +0.000 C 
ATOM     89  O   UNK A   2      11.525  43.793  42.377  0.00  0.00    +0.000 OA
BRANCH  88  90
ATOM     90  C   UNK A   2      10.470  42.953  44.387  0.00  0.00    +0.000 C 
BRANCH  90  91
ATOM     91  N   UNK A   2       9.482  41.862  44.491  0.00  0.00    +0.000 N 
ATOM     92  H   UNK A   2       9.539  41.164  45.260  0.00  0.00    +0.000 HD
ATOM     93  C   UNK A   1       8.514  41.792  43.577  0.00  0.00    +0.000 C 
ATOM     94  O   UNK A   1       8.386  42.628  42.686  0.00  0.00    +0.000 OA
BRANCH  93  95
ATOM     95  C   UNK A   1       7.594  40.581  43.657  0.00  0.00    +0.000 C 
ATOM     96  C   UNK A   1       6.234  40.875  42.987  0.00  0.00    +0.000 C 
BRANCH  95  97
ATOM     97  N   UNK A   1       7.439  40.046  45.037  0.00  0.00    +0.000 NA
ATOM     98  H   UNK A   1       7.678  39.049  45.214  0.00  0.00    +0.000 HD
ENDBRANCH  95  97
ENDBRANCH  93  95
ENDBRANCH  90  91
BRANCH  90  99
ATOM     99  C   UNK A   2      11.403  43.000  45.609  0.00  0.00    +0.000 C 
BRANCH  99 100
ATOM    100  C   UNK A   2      12.372  44.194  45.559  0.00  0.00    +0.000 C 
BRANCH 100 101
ATOM    101  C   UNK A   2      13.638  43.963  44.779  0.00  0.00    +0.000 C 
ATOM    102  O   UNK A   2      14.497  44.909  44.737  0.00  0.00    +0.000 OA
ATOM    103  O   UNK A   2      13.921  42.836  44.259  0.00  0.00    +0.000 OA
ENDBRANCH 100 101
ENDBRANCH  99 100
ENDBRANCH  90  99
ENDBRANCH  88  90
ENDBRANCH  48  86
ENDBRANCH  47  48
ENDBRANCH  46  47
ENDBRANCH  44  46
ENDBRANCH  43  44
ENDBRANCH   5  43
BRANCH   1 104
ATOM    104  O   UNK A   1      17.130  43.268  47.604  0.00  0.00    +0.000 OA
BRANCH 104 105
ATOM    105  C   UNK A   1      17.274  42.873  48.759  0.00  0.00    +0.000 C 
ATOM    106  O   UNK A   1      17.332  41.671  49.022  0.00  0.00    +0.000 OA
BRANCH 105 107
ATOM    107  C   UNK A   1      17.416  43.925  49.889  0.00  0.00    +0.000 C 
BRANCH 107 108
ATOM    108  C   UNK A   1      17.399  43.319  51.285  0.00  0.00    +0.000 C 
BRANCH 108 109
ATOM    109  C   UNK A   1      18.770  42.740  51.687  0.00  0.00    +0.000 C 
ATOM    110  O   UNK A   1      19.109  42.725  52.880  0.00  0.00    +0.000 OA
ATOM    111  N   UNK A   2      19.521  42.223  50.719  0.00  0.00    +0.000 N 
ATOM    112  H   UNK A   2      19.207  42.308  49.731  0.00  0.00    +0.000 HD
BRANCH 111 113
ATOM    113  C   UNK A   2      20.792  41.530  51.017  0.00  0.00    +0.000 C 
BRANCH 113 114
ATOM    114  C   UNK A   2      21.605  42.147  52.160  0.00  0.00    +0.000 C 
ATOM    115  N   UNK A   3      21.995  41.316  53.149  0.00  0.00    +0.000 N 
ATOM    116  H   UNK A   3      21.778  40.300  53.096  0.00  0.00    +0.000 HD
ATOM    117  O   UNK A   2      21.867  43.357  52.149  0.00  0.00    +0.000 OA
BRANCH 115 118
ATOM    118  C   UNK A   3      22.728  41.858  54.301  0.00  0.00    +0.000 C 
BRANCH 118 119
ATOM    119  C   UNK A   3      24.208  41.953  53.955  0.00  0.00    +0.000 C 
ATOM    120  O   UNK A   3      24.955  42.681  54.604  0.00  0.00    +0.000 OA
ATOM    121  N   PHE A   4      24.658  41.250  52.905  0.00  0.00    +0.000 N 
ATOM    122  H   PHE A   4      23.982  40.726  52.313  0.00  0.00    +0.000 HD
BRANCH 121 123
ATOM    123  CA  PHE A   4      26.091  41.208  52.577  0.00  0.00    +0.000 C 
BRANCH 123 124
ATOM    124  C   PHE A   4      26.247  41.280  51.065  0.00  0.00    +0.000 C 
ATOM    125  N   GLY A   5      27.258  41.982  50.573  0.00  0.00    +0.000 N 
ATOM    126  H   GLY A   5      27.768  42.639  51.197  0.00  0.00    +0.000 HD
ATOM    127  O   PHE A   4      25.447  40.702  50.327  0.00  0.00    +0.000 OA
BRANCH 125 128
ATOM    128  CA  GLY A   5      27.681  41.858  49.164  0.00  0.00    +0.000 C 
BRANCH 128 129
ATOM    129  C   GLY A   5      29.210  41.787  49.133  0.00  0.00    +0.000 C 
ATOM    130  O   GLY A   5      29.849  41.892  48.089  0.00  0.00    +0.000 OA
ENDBRANCH 128 129
BRANCH 128 131
ATOM    131  CB  GLY A   5      27.163  43.023  48.312  0.00  0.00    +0.000 C 
BRANCH 131 132
ATOM    132  CG  GLY A   5      27.654  44.389  48.821  0.00  0.00    +0.000 C 
BRANCH 132 133
ATOM    133  CD  GLY A   5      27.027  45.587  48.097  0.00  0.00    +0.000 C 
ATOM    134  OE2 GLY A   5      27.553  46.727  48.264  0.00  0.00    +0.000 OA
ATOM    135  OE1 GLY A   5      25.978  45.419  47.435  0.00  0.00    +0.000 OA
ENDBRANCH 132 133
ENDBRANCH 131 132
ENDBRANCH 128 131
ENDBRANCH 125 128
ENDBRANCH 123 124
BRANCH 123 136
ATOM    136  CB  PHE A   4      26.790  39.917  53.108  0.00  0.00    +0.000 C 
ATOM    137  CG2 PHE A   4      26.920  39.974  54.641  0.00  0.00    +0.000 C 
BRANCH 136 138
ATOM    138  CG1 PHE A   4      25.968  38.659  52.725  0.00  0.00    +0.000 C 
ATOM    139  CD1 PHE A   4      26.778  37.419  52.492  0.00  0.00    +0.000 C 
ENDBRANCH 136 138
ENDBRANCH 123 136
ENDBRANCH 121 123
ENDBRANCH 118 119
BRANCH 118 140
ATOM    140  C   UNK A   3      22.590  40.948  55.510  0.00  0.00    +0.000 C 
BRANCH 140 141
ATOM    141  O   UNK A   3      21.224  40.966  55.925  0.00  0.00    +0.000 OA
ATOM    142  H   UNK A   3      20.651  40.641  55.186  0.00  0.00    +0.000 HD
ENDBRANCH 140 141
ENDBRANCH 118 140
ENDBRANCH 115 118
ENDBRANCH 113 114
BRANCH 113 143
ATOM    143  C   UNK A   2      21.639  41.547  49.777  0.00  0.00    +0.000 C 
BRANCH 143 144
ATOM    144  O   UNK A   2      20.866  41.043  48.693  0.00  0.00    +0.000 OA
ATOM    145  H   UNK A   2      21.413  41.049  47.868  0.00  0.00    +0.000 HD
ENDBRANCH 143 144
ENDBRANCH 113 143
ENDBRANCH 111 113
ENDBRANCH 108 109
BRANCH 108 146
ATOM    146  N   UNK A   1      17.016  44.317  52.278  0.00  0.00    +0.000 NA
ATOM    147  H   UNK A   1      17.202  45.326  52.105  0.00  0.00    +0.000 HD
ENDBRANCH 108 146
ENDBRANCH 107 108
ENDBRANCH 105 107
ENDBRANCH 104 105
ENDBRANCH   1 104
BRANCH   3 148
ATOM    148  C   UNK A   1      19.807  38.981  46.155  0.00  0.00    +0.000 C 
BRANCH 148 149
ATOM    149  C   UNK A   1      19.385  38.322  47.475  0.00  0.00    +0.000 C 
BRANCH 149 150
ATOM    150  C   UNK A   1      18.076  37.539  47.310  0.00  0.00    +0.000 C 
ATOM    151  N   UNK A   3      17.141  37.612  48.267  0.00  0.00    +0.000 N 
ATOM    152  C   UNK A   3      17.087  38.505  49.452  0.00  0.00    +0.000 C 
ATOM    153  C   UNK A   3      15.616  38.997  49.450  0.00  0.00    +0.000 C 
ATOM    154  C   UNK A   3      14.859  37.736  48.990  0.00  0.00    +0.000 C 
ATOM    155  C   UNK A   3      15.782  37.050  47.990  0.00  0.00    +0.000 C 
ATOM    156  O   UNK A   2      17.945  36.841  46.309  0.00  0.00    +0.000 OA
BRANCH 152 157
ATOM    157  C   UNK A   3      17.296  37.786  50.752  0.00  0.00    +0.000 C 
ATOM    158  O   UNK A   3      17.194  38.419  51.781  0.00  0.00    +0.000 OA
ENDBRANCH 152 157
ENDBRANCH 149 150
BRANCH 149 159
ATOM    159  N   UNK A   1      20.481  37.393  47.797  0.00  0.00    +0.000 N 
ATOM    160  C   UNK A   1      20.989  37.335  49.027  0.00  0.00    +0.000 C 
ATOM    161  O   UNK A   1      20.502  37.944  49.997  0.00  0.00    +0.000 OA
ATOM    162  H   UNK A   1      20.864  36.774  47.054  0.00  0.00    +0.000 HD
BRANCH 160 163
ATOM    163  C   UNK A   1      22.266  36.485  49.231  0.00  0.00    +0.000 C 
BRANCH 163 164
ATOM    164  C   UNK A   1      23.492  37.092  48.499  0.00  0.00    +0.000 C 
ATOM    165  C   UNK A   1      23.573  38.608  48.738  0.00  0.00    +0.000 C 
BRANCH 164 166
ATOM    166  C   UNK A   1      24.752  36.396  49.024  0.00  0.00    +0.000 C 
ATOM    167  C   UNK A   1      26.026  36.837  48.283  0.00  0.00    +0.000 C 
ENDBRANCH 164 166
ENDBRANCH 163 164
BRANCH 163 168
ATOM    168  N   UNK A   1      21.971  35.129  48.732  0.00  0.00    +0.000 NA
ATOM    169  H   UNK A   1      22.009  34.917  47.714  0.00  0.00    +0.000 HD
ENDBRANCH 163 168
ENDBRANCH 160 163
ENDBRANCH 149 159
ENDBRANCH 148 149
ENDBRANCH   3 148
TORSDOF 75
REMARK  Name = ../refined-set-2016/2xef/2xef_pocket.pdb
REMARK  421 active torsions:
REMARK  status: ('A' for Active; 'I' for Inactive)
REMARK    1  A    between atoms: _1  and  _3
REMARK    2  A    between atoms: _3  and  _4
REMARK    3  A    between atoms: _7  and  _9
REMARK    4  A    between atoms: _9  and  _10
REMARK    5  A    between atoms: _9  and  _12
REMARK    6  A    between atoms: _12  and  _13
REMARK    7  A    between atoms: _19  and  _21
REMARK    8  A    between atoms: _21  and  _22
REMARK    9  A    between atoms: _21  and  _24
REMARK   10  A    between atoms: _24  and  _25
REMARK   11  A    between atoms: _30  and  _31
REMARK   12  A    between atoms: _33  and  _35
REMARK   13  A    between atoms: _35  and  _36
REMARK   14  A    between atoms: _38  and  _40
REMARK   15  A    between atoms: _40  and  _41
REMARK   16  A    between atoms: _40  and  _43
REMARK   17  A    between atoms: _43  and  _44
REMARK   18  A    between atoms: _44  and  _45
REMARK   19  A    between atoms: _45  and  _46
REMARK   20  A    between atoms: _46  and  _47
REMARK   21  A    between atoms: _51  and  _53
REMARK   22  A    between atoms: _53  and  _54
REMARK   23  A    between atoms: _53  and  _56
REMARK   24  A    between atoms: _59  and  _61
REMARK   25  A    between atoms: _61  and  _62
REMARK   26  A    between atoms: _61  and  _64
REMARK   27  A    between atoms: _64  and  _65
REMARK   28  A    between atoms: _71  and  _73
REMARK   29  A    between atoms: _73  and  _74
REMARK   30  A    between atoms: _73  and  _76
REMARK   31  A    between atoms: _76  and  _77
REMARK   32  A    between atoms: _77  and  _78
REMARK   33  A    between atoms: _78  and  _79
REMARK   34  A    between atoms: _88  and  _90
REMARK   35  A    between atoms: _90  and  _91
REMARK   36  A    between atoms: _93  and  _95
REMARK   37  A    between atoms: _95  and  _96
REMARK   38  A    between atoms: _95  and  _98
REMARK   39  A    between atoms: _98  and  _99
REMARK   40  A    between atoms: _99  and  _100
REMARK   41  A    between atoms: _100  and  _101
REMARK   42  A    between atoms: _101  and  _102
REMARK   43  A    between atoms: _106  and  _108
REMARK   44  A    between atoms: _108  and  _109
REMARK   45  A    between atoms: _108  and  _111
REMARK   46  A    between atoms: _111  and  _112
REMARK   47  A    between atoms: _117  and  _118
REMARK   48  A    between atoms: _120  and  _122
REMARK   49  A    between atoms: _122  and  _123
REMARK   50  A    between atoms: _122  and  _125
REMARK   51  A    between atoms: _125  and  _126
REMARK   52  A    between atoms: _126  and  _127
REMARK   53  A    between atoms: _132  and  _134
REMARK   54  A    between atoms: _134  and  _135
REMARK   55  A    between atoms: _134  and  _137
REMARK   56  A    between atoms: _137  and  _138
REMARK   57  A    between atoms: _138  and  _139
REMARK   58  A    between atoms: _139  and  _140
REMARK   59  A    between atoms: _149  and  _151
REMARK   60  A    between atoms: _151  and  _152
REMARK   61  A    between atoms: _154  and  _156
REMARK   62  A    between atoms: _156  and  _157
REMARK   63  A    between atoms: _156  and  _159
REMARK   64  A    between atoms: _159  and  _160
REMARK   65  A    between atoms: _165  and  _167
REMARK   66  A    between atoms: _167  and  _168
REMARK   67  A    between atoms: _167  and  _170
REMARK   68  A    between atoms: _170  and  _171
REMARK   69  A    between atoms: _174  and  _176
REMARK   70  A    between atoms: _176  and  _177
REMARK   71  A    between atoms: _176  and  _179
REMARK   72  A    between atoms: _179  and  _180
REMARK   73  A    between atoms: _183  and  _185
REMARK   74  A    between atoms: _185  and  _186
REMARK   75  A    between atoms: _185  and  _188
REMARK   76  A    between atoms: _188  and  _189
REMARK   77  A    between atoms: _194  and  _196
REMARK   78  A    between atoms: _196  and  _197
REMARK   79  A    between atoms: _196  and  _199
REMARK   80  A    between atoms: _199  and  _200
REMARK   81  A    between atoms: _203  and  _205
REMARK   82  A    between atoms: _205  and  _206
REMARK   83  A    between atoms: _205  and  _208
REMARK   84  A    between atoms: _208  and  _209
REMARK   85  A    between atoms: _214  and  _216
REMARK   86  A    between atoms: _216  and  _217
REMARK   87  A    between atoms: _219  and  _221
REMARK   88  A    between atoms: _221  and  _222
REMARK   89  A    between atoms: _224  and  _226
REMARK   90  A    between atoms: _226  and  _227
REMARK   91  A    between atoms: _226  and  _229
REMARK   92  A    between atoms: _229  and  _230
REMARK   93  A    between atoms: _234  and  ZN_1038
REMARK   94  A    between atoms: _235  and  _237
REMARK   95  A    between atoms: _237  and  _238
REMARK   96  A    between atoms: _237  and  _240
REMARK   97  A    between atoms: _240  and  _241
REMARK   98  A    between atoms: _244  and  _246
REMARK   99  A    between atoms: _246  and  _247
REMARK  100  A    between atoms: _246  and  _249
REMARK  101  A    between atoms: _249  and  _250
REMARK  102  A    between atoms: _260  and  _262
REMARK  103  A    between atoms: _262  and  _263
REMARK  104  A    between atoms: _262  and  _265
REMARK  105  A    between atoms: _265  and  _266
REMARK  106  A    between atoms: _269  and  _271
REMARK  107  A    between atoms: _271  and  _272
REMARK  108  A    between atoms: _271  and  _274
REMARK  109  A    between atoms: _274  and  _275
REMARK  110  A    between atoms: _279  and  _280
REMARK  111  A    between atoms: _285  and  _287
REMARK  112  A    between atoms: _287  and  _288
REMARK  113  A    between atoms: _291  and  _293
REMARK  114  A    between atoms: _293  and  _294
REMARK  115  A    between atoms: _293  and  _296
REMARK  116  A    between atoms: _296  and  _297
REMARK  117  A    between atoms: _297  and  _298
REMARK  118  A    between atoms: _301  and  _303
REMARK  119  A    between atoms: _303  and  _304
REMARK  120  A    between atoms: _303  and  _306
REMARK  121  A    between atoms: _306  and  _307
REMARK  122  A    between atoms: _307  and  _308
REMARK  123  A    between atoms: _308  and  _310
REMARK  124  A    between atoms: _310  and  ZN_1037
REMARK  125  A    between atoms: _311  and  _313
REMARK  126  A    between atoms: _313  and  _314
REMARK  127  A    between atoms: _313  and  _316
REMARK  128  A    between atoms: _316  and  _317
REMARK  129  A    between atoms: _323  and  _325
REMARK  130  A    between atoms: _325  and  _326
REMARK  131  A    between atoms: _328  and  _330
REMARK  132  A    between atoms: _330  and  _331
REMARK  133  A    between atoms: _330  and  _333
REMARK  134  A    between atoms: _333  and  _334
REMARK  135  A    between atoms: _337  and  _339
REMARK  136  A    between atoms: _339  and  _340
REMARK  137  A    between atoms: _339  and  _342
REMARK  138  A    between atoms: _342  and  _343
REMARK  139  A    between atoms: _346  and  _348
REMARK  140  A    between atoms: _348  and  _349
REMARK  141  A    between atoms: _348  and  _351
REMARK  142  A    between atoms: _351  and  _352
REMARK  143  A    between atoms: _357  and  _359
REMARK  144  A    between atoms: _359  and  _360
REMARK  145  A    between atoms: _359  and  _362
REMARK  146  A    between atoms: _362  and  _363
REMARK  147  A    between atoms: _363  and  _365
REMARK  148  A    between atoms: _365  and  ZN_1038
REMARK  149  A    between atoms: _366  and  _368
REMARK  150  A    between atoms: _368  and  _369
REMARK  151  A    between atoms: _368  and  _371
REMARK  152  A    between atoms: _371  and  _372
REMARK  153  A    between atoms: _374  and  _376
REMARK  154  A    between atoms: _376  and  _377
REMARK  155  A    between atoms: _376  and  _379
REMARK  156  A    between atoms: _379  and  _380
REMARK  157  A    between atoms: _382  and  _384
REMARK  158  A    between atoms: _384  and  _385
REMARK  159  A    between atoms: _384  and  _387
REMARK  160  A    between atoms: _387  and  _388
REMARK  161  A    between atoms: _391  and  _393
REMARK  162  A    between atoms: _393  and  _394
REMARK  163  A    between atoms: _393  and  _396
REMARK  164  A    between atoms: _396  and  _397
REMARK  165  A    between atoms: _397  and  _398
REMARK  166  A    between atoms: _401  and  _403
REMARK  167  A    between atoms: _403  and  _404
REMARK  168  A    between atoms: _403  and  _406
REMARK  169  A    between atoms: _406  and  _407
REMARK  170  A    between atoms: _412  and  _413
REMARK  171  A    between atoms: _415  and  _417
REMARK  172  A    between atoms: _417  and  _418
REMARK  173  A    between atoms: _417  and  _420
REMARK  174  A    between atoms: _420  and  _421
REMARK  175  A    between atoms: _424  and  _426
REMARK  176  A    between atoms: _426  and  _427
REMARK  177  A    between atoms: _426  and  _429
REMARK  178  A    between atoms: _429  and  _430
REMARK  179  A    between atoms: _433  and  _435
REMARK  180  A    between atoms: _435  and  _436
REMARK  181  A    between atoms: _435  and  _438
REMARK  182  A    between atoms: _438  and  _439
REMARK  183  A    between atoms: _439  and  _440
REMARK  184  A    between atoms: _440  and  _441
REMARK  185  A    between atoms: _450  and  _452
REMARK  186  A    between atoms: _452  and  _453
REMARK  187  A    between atoms: _452  and  _455
REMARK  188  A    between atoms: _458  and  _460
REMARK  189  A    between atoms: _460  and  _461
REMARK  190  A    between atoms: _460  and  _463
REMARK  191  A    between atoms: _463  and  _464
REMARK  192  A    between atoms: _467  and  _469
REMARK  193  A    between atoms: _469  and  _470
REMARK  194  A    between atoms: _469  and  _472
REMARK  195  A    between atoms: _474  and  _476
REMARK  196  A    between atoms: _476  and  _477
REMARK  197  A    between atoms: _476  and  _479
REMARK  198  A    between atoms: _479  and  _480
REMARK  199  A    between atoms: _490  and  _492
REMARK  200  A    between atoms: _492  and  _493
REMARK  201  A    between atoms: _492  and  _495
REMARK  202  A    between atoms: _495  and  _496
REMARK  203  A    between atoms: _496  and  _497
REMARK  204  A    between atoms: _497  and  _498
REMARK  205  A    between atoms: _498  and  _499
REMARK  206  A    between atoms: _503  and  _505
REMARK  207  A    between atoms: _505  and  _506
REMARK  208  A    between atoms: _505  and  _508
REMARK  209  A    between atoms: _508  and  _509
REMARK  210  A    between atoms: _512  and  _513
REMARK  211  A    between atoms: _519  and  _520
REMARK  212  A    between atoms: _525  and  _527
REMARK  213  A    between atoms: _527  and  _528
REMARK  214  A    between atoms: _527  and  _530
REMARK  215  A    between atoms: _530  and  _531
REMARK  216  A    between atoms: _531  and  _532
REMARK  217  A    between atoms: _535  and  _537
REMARK  218  A    between atoms: _537  and  _538
REMARK  219  A    between atoms: _537  and  _540
REMARK  220  A    between atoms: _540  and  _541
REMARK  221  A    between atoms: _541  and  _542
REMARK  222  A    between atoms: _542  and  _543
REMARK  223  A    between atoms: _552  and  _554
REMARK  224  A    between atoms: _554  and  _555
REMARK  225  A    between atoms: _554  and  _557
REMARK  226  A    between atoms: _557  and  _558
REMARK  227  A    between atoms: _561  and  _563
REMARK  228  A    between atoms: _563  and  _564
REMARK  229  A    between atoms: _563  and  _566
REMARK  230  A    between atoms: _566  and  _567
REMARK  231  A    between atoms: _569  and  _571
REMARK  232  A    between atoms: _571  and  _572
REMARK  233  A    between atoms: _571  and  _574
REMARK  234  A    between atoms: _574  and  _575
REMARK  235  A    between atoms: _575  and  _576
REMARK  236  A    between atoms: _576  and  _577
REMARK  237  A    between atoms: _577  and  _578
REMARK  238  A    between atoms: _582  and  _584
REMARK  239  A    between atoms: _584  and  _585
REMARK  240  A    between atoms: _584  and  _587
REMARK  241  A    between atoms: _587  and  _588
REMARK  242  A    between atoms: _591  and  _593
REMARK  243  A    between atoms: _593  and  _594
REMARK  244  A    between atoms: _596  and  _598
REMARK  245  A    between atoms: _598  and  _599
REMARK  246  A    between atoms: _598  and  _601
REMARK  247  A    between atoms: _601  and  _602
REMARK  248  A    between atoms: _604  and  _606
REMARK  249  A    between atoms: _606  and  _607
REMARK  250  A    between atoms: _609  and  _611
REMARK  251  A    between atoms: _611  and  _612
REMARK  252  A    between atoms: _611  and  _614
REMARK  253  A    between atoms: _614  and  _615
REMARK  254  A    between atoms: _620  and  _622
REMARK  255  A    between atoms: _622  and  _623
REMARK  256  A    between atoms: _622  and  _625
REMARK  257  A    between atoms: _625  and  _626
REMARK  258  A    between atoms: _629  and  _631
REMARK  259  A    between atoms: _631  and  _632
REMARK  260  A    between atoms: _631  and  _634
REMARK  261  A    between atoms: _634  and  _635
REMARK  262  A    between atoms: _641  and  _643
REMARK  263  A    between atoms: _643  and  _644
REMARK  264  A    between atoms: _643  and  _646
REMARK  265  A    between atoms: _646  and  _647
REMARK  266  A    between atoms: _647  and  _648
REMARK  267  A    between atoms: _651  and  _653
REMARK  268  A    between atoms: _653  and  _654
REMARK  269  A    between atoms: _653  and  _656
REMARK  270  A    between atoms: _656  and  _657
REMARK  271  A    between atoms: _657  and  _658
REMARK  272  A    between atoms: _663  and  _665
REMARK  273  A    between atoms: _665  and  _666
REMARK  274  A    between atoms: _665  and  _668
REMARK  275  A    between atoms: _668  and  _669
REMARK  276  A    between atoms: _669  and  _670
REMARK  277  A    between atoms: _670  and  _671
REMARK  278  A    between atoms: _680  and  _682
REMARK  279  A    between atoms: _682  and  _683
REMARK  280  A    between atoms: _682  and  _685
REMARK  281  A    between atoms: _685  and  _686
REMARK  282  A    between atoms: _686  and  _687
REMARK  283  A    between atoms: _687  and  _688
REMARK  284  A    between atoms: _697  and  _699
REMARK  285  A    between atoms: _699  and  _700
REMARK  286  A    between atoms: _699  and  _702
REMARK  287  A    between atoms: _702  and  _703
REMARK  288  A    between atoms: _708  and  _709
REMARK  289  A    between atoms: _711  and  _713
REMARK  290  A    between atoms: _713  and  _714
REMARK  291  A    between atoms: _713  and  _716
REMARK  292  A    between atoms: _716  and  _717
REMARK  293  A    between atoms: _720  and  _722
REMARK  294  A    between atoms: _722  and  _723
REMARK  295  A    between atoms: _722  and  _725
REMARK  296  A    between atoms: _725  and  _726
REMARK  297  A    between atoms: _726  and  _727
REMARK  298  A    between atoms: _727  and  _728
REMARK  299  A    between atoms: _728  and  _729
REMARK  300  A    between atoms: _733  and  _735
REMARK  301  A    between atoms: _735  and  _736
REMARK  302  A    between atoms: _735  and  _738
REMARK  303  A    between atoms: _738  and  _739
REMARK  304  A    between atoms: _744  and  _746
REMARK  305  A    between atoms: _746  and  _747
REMARK  306  A    between atoms: _746  and  _749
REMARK  307  A    between atoms: _749  and  _750
REMARK  308  A    between atoms: _760  and  _762
REMARK  309  A    between atoms: _762  and  _763
REMARK  310  A    between atoms: _762  and  _765
REMARK  311  A    between atoms: _765  and  _766
REMARK  312  A    between atoms: _766  and  _767
REMARK  313  A    between atoms: _770  and  _772
REMARK  314  A    between atoms: _772  and  _773
REMARK  315  A    between atoms: _772  and  _775
REMARK  316  A    between atoms: _775  and  _776
REMARK  317  A    between atoms: _779  and  _781
REMARK  318  A    between atoms: _781  and  _782
REMARK  319  A    between atoms: _781  and  _784
REMARK  320  A    between atoms: _784  and  _785
REMARK  321  A    between atoms: _790  and  _792
REMARK  322  A    between atoms: _792  and  _793
REMARK  323  A    between atoms: _792  and  _795
REMARK  324  A    between atoms: _795  and  _796
REMARK  325  A    between atoms: _802  and  _804
REMARK  326  A    between atoms: _804  and  _805
REMARK  327  A    between atoms: _804  and  _807
REMARK  328  A    between atoms: _807  and  _808
REMARK  329  A    between atoms: _810  and  _812
REMARK  330  A    between atoms: _812  and  _813
REMARK  331  A    between atoms: _815  and  _817
REMARK  332  A    between atoms: _817  and  _818
REMARK  333  A    between atoms: _817  and  _820
REMARK  334  A    between atoms: _820  and  _821
REMARK  335  A    between atoms: _826  and  _827
REMARK  336  A    between atoms: _829  and  _831
REMARK  337  A    between atoms: _831  and  _832
REMARK  338  A    between atoms: _831  and  _834
REMARK  339  A    between atoms: _834  and  _835
REMARK  340  A    between atoms: _840  and  _841
REMARK  341  A    between atoms: _843  and  _845
REMARK  342  A    between atoms: _845  and  _846
REMARK  343  A    between atoms: _845  and  _848
REMARK  344  A    between atoms: _848  and  _849
REMARK  345  A    between atoms: _853  and  ZN_1037
REMARK  346  A    between atoms: _854  and  _856
REMARK  347  A    between atoms: _856  and  _857
REMARK  348  A    between atoms: _856  and  _859
REMARK  349  A    between atoms: _859  and  _860
REMARK  350  A    between atoms: _860  and  _861
REMARK  351  A    between atoms: _864  and  _866
REMARK  352  A    between atoms: _866  and  _867
REMARK  353  A    between atoms: _866  and  _869
REMARK  354  A    between atoms: _869  and  _870
REMARK  355  A    between atoms: _870  and  _871
REMARK  356  A    between atoms: _871  and  _872
REMARK  357  A    between atoms: _881  and  _883
REMARK  358  A    between atoms: _883  and  _884
REMARK  359  A    between atoms: _883  and  _886
REMARK  360  A    between atoms: _886  and  _887
REMARK  361  A    between atoms: _887  and  _888
REMARK  362  A    between atoms: _888  and  _889
REMARK  363  A    between atoms: _889  and  _890
REMARK  364  A    between atoms: _894  and  _896
REMARK  365  A    between atoms: _896  and  _897
REMARK  366  A    between atoms: _896  and  _899
REMARK  367  A    between atoms: _899  and  _900
REMARK  368  A    between atoms: _905  and  _906
REMARK  369  A    between atoms: _908  and  _910
REMARK  370  A    between atoms: _910  and  _911
REMARK  371  A    between atoms: _910  and  _913
REMARK  372  A    between atoms: _913  and  _914
REMARK  373  A    between atoms: _914  and  _915
REMARK  374  A    between atoms: _915  and  _916
REMARK  375  A    between atoms: _916  and  _917
REMARK  376  A    between atoms: _921  and  _923
REMARK  377  A    between atoms: _923  and  _924
REMARK  378  A    between atoms: _923  and  _926
REMARK  379  A    between atoms: _926  and  _927
REMARK  380  A    between atoms: _932  and  _933
REMARK  381  A    between atoms: _935  and  _937
REMARK  382  A    between atoms: _937  and  _938
REMARK  383  A    between atoms: _937  and  _940
REMARK  384  A    between atoms: _940  and  _941
REMARK  385  A    between atoms: _946  and  _947
REMARK  386  A    between atoms: _949  and  _951
REMARK  387  A    between atoms: _951  and  _952
REMARK  388  A    between atoms: _956  and  _957
REMARK  389  A    between atoms: _962  and  _964
REMARK  390  A    between atoms: _964  and  _965
REMARK  391  A    between atoms: _964  and  _967
REMARK  392  A    between atoms: _967  and  _968
REMARK  393  A    between atoms: _970  and  _972
REMARK  394  A    between atoms: _972  and  _973
REMARK  395  A    between atoms: _972  and  _975
REMARK  396  A    between atoms: _975  and  _976
REMARK  397  A    between atoms: _981  and  _983
REMARK  398  A    between atoms: _983  and  _984
REMARK  399  A    between atoms: _983  and  _986
REMARK  400  A    between atoms: _986  and  _987
REMARK  401  A    between atoms: _987  and  _988
REMARK  402  A    between atoms: _988  and  _989
REMARK  403  A    between atoms: _989  and  _990
REMARK  404  A    between atoms: _994  and  _996
REMARK  405  A    between atoms: _996  and  _997
REMARK  406  A    between atoms: _996  and  _999
REMARK  407  A    between atoms: _999  and  _1000
REMARK  408  A    between atoms: _1005  and  _1006
REMARK  409  A    between atoms: _1008  and  _1010
REMARK  410  A    between atoms: _1010  and  _1011
REMARK  411  A    between atoms: _1014  and  _1016
REMARK  412  A    between atoms: _1016  and  _1017
REMARK  413  A    between atoms: _1019  and  _1021
REMARK  414  A    between atoms: _1021  and  _1022
REMARK  415  A    between atoms: _1021  and  _1024
REMARK  416  A    between atoms: _1024  and  _1025
REMARK  417  A    between atoms: _1025  and  _1026
REMARK  418  A    between atoms: _1029  and  _1031
REMARK  419  A    between atoms: _1031  and  _1032
REMARK  420  A    between atoms: _1031  and  _1034
REMARK  421  A    between atoms: _1034  and  _1035
REMARK                            x       y       z     vdW  Elec       q    Type
REMARK                         _______ _______ _______ _____ _____    ______ ____
ROOT
ATOM      1  CA  ASP A   1      10.785  36.590  46.487  0.00  0.00    +0.144 C 
ENDROOT
BRANCH   1   2
ATOM      2  N   ASP A   1      10.679  37.304  47.775  0.00  0.00    -0.239 NA
ATOM      3  H   ASP A   1      10.200  38.225  47.838  0.00  0.00    +0.142 HD
ENDBRANCH   1   2
BRANCH   1   4
ATOM      4  C   ASP A   1      12.221  36.600  45.983  0.00  0.00    +0.225 C 
ATOM      5  O   ASP A   1      12.928  37.590  46.152  0.00  0.00    -0.287 OA
ENDBRANCH   1   4
BRANCH   1   6
ATOM      6  CB  ASP A   1       9.915  37.254  45.448  0.00  0.00    +0.139 C 
BRANCH   6   7
ATOM      7  CG  ASP A   1      10.342  38.684  45.108  0.00  0.00    +0.367 C 
ATOM      8  OD2 ASP A   1      10.361  39.537  46.039  0.00  0.00    -0.246 OA
ATOM      9  OD1 ASP A   1      10.553  38.919  43.874  0.00  0.00    -0.246 OA
ENDBRANCH   6   7
ENDBRANCH   1   6
TORSDOF 4
REMARK  Name = ../refined-set-2016/2xef/2xef_pocket.pdb
REMARK  421 active torsions:
REMARK  status: ('A' for Active; 'I' for Inactive)
REMARK    1  A    between atoms: _1  and  _3
REMARK    2  A    between atoms: _3  and  _4
REMARK    3  A    between atoms: _7  and  _9
REMARK    4  A    between atoms: _9  and  _10
REMARK    5  A    between atoms: _9  and  _12
REMARK    6  A    between atoms: _12  and  _13
REMARK    7  A    between atoms: _19  and  _21
REMARK    8  A    between atoms: _21  and  _22
REMARK    9  A    between atoms: _21  and  _24
REMARK   10  A    between atoms: _24  and  _25
REMARK   11  A    between atoms: _30  and  _31
REMARK   12  A    between atoms: _33  and  _35
REMARK   13  A    between atoms: _35  and  _36
REMARK   14  A    between atoms: _38  and  _40
REMARK   15  A    between atoms: _40  and  _41
REMARK   16  A    between atoms: _40  and  _43
REMARK   17  A    between atoms: _43  and  _44
REMARK   18  A    between atoms: _44  and  _45
REMARK   19  A    between atoms: _45  and  _46
REMARK   20  A    between atoms: _46  and  _47
REMARK   21  A    between atoms: _51  and  _53
REMARK   22  A    between atoms: _53  and  _54
REMARK   23  A    between atoms: _53  and  _56
REMARK   24  A    between atoms: _59  and  _61
REMARK   25  A    between atoms: _61  and  _62
REMARK   26  A    between atoms: _61  and  _64
REMARK   27  A    between atoms: _64  and  _65
REMARK   28  A    between atoms: _71  and  _73
REMARK   29  A    between atoms: _73  and  _74
REMARK   30  A    between atoms: _73  and  _76
REMARK   31  A    between atoms: _76  and  _77
REMARK   32  A    between atoms: _77  and  _78
REMARK   33  A    between atoms: _78  and  _79
REMARK   34  A    between atoms: _88  and  _90
REMARK   35  A    between atoms: _90  and  _91
REMARK   36  A    between atoms: _93  and  _95
REMARK   37  A    between atoms: _95  and  _96
REMARK   38  A    between atoms: _95  and  _98
REMARK   39  A    between atoms: _98  and  _99
REMARK   40  A    between atoms: _99  and  _100
REMARK   41  A    between atoms: _100  and  _101
REMARK   42  A    between atoms: _101  and  _102
REMARK   43  A    between atoms: _106  and  _108
REMARK   44  A    between atoms: _108  and  _109
REMARK   45  A    between atoms: _108  and  _111
REMARK   46  A    between atoms: _111  and  _112
REMARK   47  A    between atoms: _117  and  _118
REMARK   48  A    between atoms: _120  and  _122
REMARK   49  A    between atoms: _122  and  _123
REMARK   50  A    between atoms: _122  and  _125
REMARK   51  A    between atoms: _125  and  _126
REMARK   52  A    between atoms: _126  and  _127
REMARK   53  A    between atoms: _132  and  _134
REMARK   54  A    between atoms: _134  and  _135
REMARK   55  A    between atoms: _134  and  _137
REMARK   56  A    between atoms: _137  and  _138
REMARK   57  A    between atoms: _138  and  _139
REMARK   58  A    between atoms: _139  and  _140
REMARK   59  A    between atoms: _149  and  _151
REMARK   60  A    between atoms: _151  and  _152
REMARK   61  A    between atoms: _154  and  _156
REMARK   62  A    between atoms: _156  and  _157
REMARK   63  A    between atoms: _156  and  _159
REMARK   64  A    between atoms: _159  and  _160
REMARK   65  A    between atoms: _165  and  _167
REMARK   66  A    between atoms: _167  and  _168
REMARK   67  A    between atoms: _167  and  _170
REMARK   68  A    between atoms: _170  and  _171
REMARK   69  A    between atoms: _174  and  _176
REMARK   70  A    between atoms: _176  and  _177
REMARK   71  A    between atoms: _176  and  _179
REMARK   72  A    between atoms: _179  and  _180
REMARK   73  A    between atoms: _183  and  _185
REMARK   74  A    between atoms: _185  and  _186
REMARK   75  A    between atoms: _185  and  _188
REMARK   76  A    between atoms: _188  and  _189
REMARK   77  A    between atoms: _194  and  _196
REMARK   78  A    between atoms: _196  and  _197
REMARK   79  A    between atoms: _196  and  _199
REMARK   80  A    between atoms: _199  and  _200
REMARK   81  A    between atoms: _203  and  _205
REMARK   82  A    between atoms: _205  and  _206
REMARK   83  A    between atoms: _205  and  _208
REMARK   84  A    between atoms: _208  and  _209
REMARK   85  A    between atoms: _214  and  _216
REMARK   86  A    between atoms: _216  and  _217
REMARK   87  A    between atoms: _219  and  _221
REMARK   88  A    between atoms: _221  and  _222
REMARK   89  A    between atoms: _224  and  _226
REMARK   90  A    between atoms: _226  and  _227
REMARK   91  A    between atoms: _226  and  _229
REMARK   92  A    between atoms: _229  and  _230
REMARK   93  A    between atoms: _234  and  ZN_1038
REMARK   94  A    between atoms: _235  and  _237
REMARK   95  A    between atoms: _237  and  _238
REMARK   96  A    between atoms: _237  and  _240
REMARK   97  A    between atoms: _240  and  _241
REMARK   98  A    between atoms: _244  and  _246
REMARK   99  A    between atoms: _246  and  _247
REMARK  100  A    between atoms: _246  and  _249
REMARK  101  A    between atoms: _249  and  _250
REMARK  102  A    between atoms: _260  and  _262
REMARK  103  A    between atoms: _262  and  _263
REMARK  104  A    between atoms: _262  and  _265
REMARK  105  A    between atoms: _265  and  _266
REMARK  106  A    between atoms: _269  and  _271
REMARK  107  A    between atoms: _271  and  _272
REMARK  108  A    between atoms: _271  and  _274
REMARK  109  A    between atoms: _274  and  _275
REMARK  110  A    between atoms: _279  and  _280
REMARK  111  A    between atoms: _285  and  _287
REMARK  112  A    between atoms: _287  and  _288
REMARK  113  A    between atoms: _291  and  _293
REMARK  114  A    between atoms: _293  and  _294
REMARK  115  A    between atoms: _293  and  _296
REMARK  116  A    between atoms: _296  and  _297
REMARK  117  A    between atoms: _297  and  _298
REMARK  118  A    between atoms: _301  and  _303
REMARK  119  A    between atoms: _303  and  _304
REMARK  120  A    between atoms: _303  and  _306
REMARK  121  A    between atoms: _306  and  _307
REMARK  122  A    between atoms: _307  and  _308
REMARK  123  A    between atoms: _308  and  _310
REMARK  124  A    between atoms: _310  and  ZN_1037
REMARK  125  A    between atoms: _311  and  _313
REMARK  126  A    between atoms: _313  and  _314
REMARK  127  A    between atoms: _313  and  _316
REMARK  128  A    between atoms: _316  and  _317
REMARK  129  A    between atoms: _323  and  _325
REMARK  130  A    between atoms: _325  and  _326
REMARK  131  A    between atoms: _328  and  _330
REMARK  132  A    between atoms: _330  and  _331
REMARK  133  A    between atoms: _330  and  _333
REMARK  134  A    between atoms: _333  and  _334
REMARK  135  A    between atoms: _337  and  _339
REMARK  136  A    between atoms: _339  and  _340
REMARK  137  A    between atoms: _339  and  _342
REMARK  138  A    between atoms: _342  and  _343
REMARK  139  A    between atoms: _346  and  _348
REMARK  140  A    between atoms: _348  and  _349
REMARK  141  A    between atoms: _348  and  _351
REMARK  142  A    between atoms: _351  and  _352
REMARK  143  A    between atoms: _357  and  _359
REMARK  144  A    between atoms: _359  and  _360
REMARK  145  A    between atoms: _359  and  _362
REMARK  146  A    between atoms: _362  and  _363
REMARK  147  A    between atoms: _363  and  _365
REMARK  148  A    between atoms: _365  and  ZN_1038
REMARK  149  A    between atoms: _366  and  _368
REMARK  150  A    between atoms: _368  and  _369
REMARK  151  A    between atoms: _368  and  _371
REMARK  152  A    between atoms: _371  and  _372
REMARK  153  A    between atoms: _374  and  _376
REMARK  154  A    between atoms: _376  and  _377
REMARK  155  A    between atoms: _376  and  _379
REMARK  156  A    between atoms: _379  and  _380
REMARK  157  A    between atoms: _382  and  _384
REMARK  158  A    between atoms: _384  and  _385
REMARK  159  A    between atoms: _384  and  _387
REMARK  160  A    between atoms: _387  and  _388
REMARK  161  A    between atoms: _391  and  _393
REMARK  162  A    between atoms: _393  and  _394
REMARK  163  A    between atoms: _393  and  _396
REMARK  164  A    between atoms: _396  and  _397
REMARK  165  A    between atoms: _397  and  _398
REMARK  166  A    between atoms: _401  and  _403
REMARK  167  A    between atoms: _403  and  _404
REMARK  168  A    between atoms: _403  and  _406
REMARK  169  A    between atoms: _406  and  _407
REMARK  170  A    between atoms: _412  and  _413
REMARK  171  A    between atoms: _415  and  _417
REMARK  172  A    between atoms: _417  and  _418
REMARK  173  A    between atoms: _417  and  _420
REMARK  174  A    between atoms: _420  and  _421
REMARK  175  A    between atoms: _424  and  _426
REMARK  176  A    between atoms: _426  and  _427
REMARK  177  A    between atoms: _426  and  _429
REMARK  178  A    between atoms: _429  and  _430
REMARK  179  A    between atoms: _433  and  _435
REMARK  180  A    between atoms: _435  and  _436
REMARK  181  A    between atoms: _435  and  _438
REMARK  182  A    between atoms: _438  and  _439
REMARK  183  A    between atoms: _439  and  _440
REMARK  184  A    between atoms: _440  and  _441
REMARK  185  A    between atoms: _450  and  _452
REMARK  186  A    between atoms: _452  and  _453
REMARK  187  A    between atoms: _452  and  _455
REMARK  188  A    between atoms: _458  and  _460
REMARK  189  A    between atoms: _460  and  _461
REMARK  190  A    between atoms: _460  and  _463
REMARK  191  A    between atoms: _463  and  _464
REMARK  192  A    between atoms: _467  and  _469
REMARK  193  A    between atoms: _469  and  _470
REMARK  194  A    between atoms: _469  and  _472
REMARK  195  A    between atoms: _474  and  _476
REMARK  196  A    between atoms: _476  and  _477
REMARK  197  A    between atoms: _476  and  _479
REMARK  198  A    between atoms: _479  and  _480
REMARK  199  A    between atoms: _490  and  _492
REMARK  200  A    between atoms: _492  and  _493
REMARK  201  A    between atoms: _492  and  _495
REMARK  202  A    between atoms: _495  and  _496
REMARK  203  A    between atoms: _496  and  _497
REMARK  204  A    between atoms: _497  and  _498
REMARK  205  A    between atoms: _498  and  _499
REMARK  206  A    between atoms: _503  and  _505
REMARK  207  A    between atoms: _505  and  _506
REMARK  208  A    between atoms: _505  and  _508
REMARK  209  A    between atoms: _508  and  _509
REMARK  210  A    between atoms: _512  and  _513
REMARK  211  A    between atoms: _519  and  _520
REMARK  212  A    between atoms: _525  and  _527
REMARK  213  A    between atoms: _527  and  _528
REMARK  214  A    between atoms: _527  and  _530
REMARK  215  A    between atoms: _530  and  _531
REMARK  216  A    between atoms: _531  and  _532
REMARK  217  A    between atoms: _535  and  _537
REMARK  218  A    between atoms: _537  and  _538
REMARK  219  A    between atoms: _537  and  _540
REMARK  220  A    between atoms: _540  and  _541
REMARK  221  A    between atoms: _541  and  _542
REMARK  222  A    between atoms: _542  and  _543
REMARK  223  A    between atoms: _552  and  _554
REMARK  224  A    between atoms: _554  and  _555
REMARK  225  A    between atoms: _554  and  _557
REMARK  226  A    between atoms: _557  and  _558
REMARK  227  A    between atoms: _561  and  _563
REMARK  228  A    between atoms: _563  and  _564
REMARK  229  A    between atoms: _563  and  _566
REMARK  230  A    between atoms: _566  and  _567
REMARK  231  A    between atoms: _569  and  _571
REMARK  232  A    between atoms: _571  and  _572
REMARK  233  A    between atoms: _571  and  _574
REMARK  234  A    between atoms: _574  and  _575
REMARK  235  A    between atoms: _575  and  _576
REMARK  236  A    between atoms: _576  and  _577
REMARK  237  A    between atoms: _577  and  _578
REMARK  238  A    between atoms: _582  and  _584
REMARK  239  A    between atoms: _584  and  _585
REMARK  240  A    between atoms: _584  and  _587
REMARK  241  A    between atoms: _587  and  _588
REMARK  242  A    between atoms: _591  and  _593
REMARK  243  A    between atoms: _593  and  _594
REMARK  244  A    between atoms: _596  and  _598
REMARK  245  A    between atoms: _598  and  _599
REMARK  246  A    between atoms: _598  and  _601
REMARK  247  A    between atoms: _601  and  _602
REMARK  248  A    between atoms: _604  and  _606
REMARK  249  A    between atoms: _606  and  _607
REMARK  250  A    between atoms: _609  and  _611
REMARK  251  A    between atoms: _611  and  _612
REMARK  252  A    between atoms: _611  and  _614
REMARK  253  A    between atoms: _614  and  _615
REMARK  254  A    between atoms: _620  and  _622
REMARK  255  A    between atoms: _622  and  _623
REMARK  256  A    between atoms: _622  and  _625
REMARK  257  A    between atoms: _625  and  _626
REMARK  258  A    between atoms: _629  and  _631
REMARK  259  A    between atoms: _631  and  _632
REMARK  260  A    between atoms: _631  and  _634
REMARK  261  A    between atoms: _634  and  _635
REMARK  262  A    between atoms: _641  and  _643
REMARK  263  A    between atoms: _643  and  _644
REMARK  264  A    between atoms: _643  and  _646
REMARK  265  A    between atoms: _646  and  _647
REMARK  266  A    between atoms: _647  and  _648
REMARK  267  A    between atoms: _651  and  _653
REMARK  268  A    between atoms: _653  and  _654
REMARK  269  A    between atoms: _653  and  _656
REMARK  270  A    between atoms: _656  and  _657
REMARK  271  A    between atoms: _657  and  _658
REMARK  272  A    between atoms: _663  and  _665
REMARK  273  A    between atoms: _665  and  _666
REMARK  274  A    between atoms: _665  and  _668
REMARK  275  A    between atoms: _668  and  _669
REMARK  276  A    between atoms: _669  and  _670
REMARK  277  A    between atoms: _670  and  _671
REMARK  278  A    between atoms: _680  and  _682
REMARK  279  A    between atoms: _682  and  _683
REMARK  280  A    between atoms: _682  and  _685
REMARK  281  A    between atoms: _685  and  _686
REMARK  282  A    between atoms: _686  and  _687
REMARK  283  A    between atoms: _687  and  _688
REMARK  284  A    between atoms: _697  and  _699
REMARK  285  A    between atoms: _699  and  _700
REMARK  286  A    between atoms: _699  and  _702
REMARK  287  A    between atoms: _702  and  _703
REMARK  288  A    between atoms: _708  and  _709
REMARK  289  A    between atoms: _711  and  _713
REMARK  290  A    between atoms: _713  and  _714
REMARK  291  A    between atoms: _713  and  _716
REMARK  292  A    between atoms: _716  and  _717
REMARK  293  A    between atoms: _720  and  _722
REMARK  294  A    between atoms: _722  and  _723
REMARK  295  A    between atoms: _722  and  _725
REMARK  296  A    between atoms: _725  and  _726
REMARK  297  A    between atoms: _726  and  _727
REMARK  298  A    between atoms: _727  and  _728
REMARK  299  A    between atoms: _728  and  _729
REMARK  300  A    between atoms: _733  and  _735
REMARK  301  A    between atoms: _735  and  _736
REMARK  302  A    between atoms: _735  and  _738
REMARK  303  A    between atoms: _738  and  _739
REMARK  304  A    between atoms: _744  and  _746
REMARK  305  A    between atoms: _746  and  _747
REMARK  306  A    between atoms: _746  and  _749
REMARK  307  A    between atoms: _749  and  _750
REMARK  308  A    between atoms: _760  and  _762
REMARK  309  A    between atoms: _762  and  _763
REMARK  310  A    between atoms: _762  and  _765
REMARK  311  A    between atoms: _765  and  _766
REMARK  312  A    between atoms: _766  and  _767
REMARK  313  A    between atoms: _770  and  _772
REMARK  314  A    between atoms: _772  and  _773
REMARK  315  A    between atoms: _772  and  _775
REMARK  316  A    between atoms: _775  and  _776
REMARK  317  A    between atoms: _779  and  _781
REMARK  318  A    between atoms: _781  and  _782
REMARK  319  A    between atoms: _781  and  _784
REMARK  320  A    between atoms: _784  and  _785
REMARK  321  A    between atoms: _790  and  _792
REMARK  322  A    between atoms: _792  and  _793
REMARK  323  A    between atoms: _792  and  _795
REMARK  324  A    between atoms: _795  and  _796
REMARK  325  A    between atoms: _802  and  _804
REMARK  326  A    between atoms: _804  and  _805
REMARK  327  A    between atoms: _804  and  _807
REMARK  328  A    between atoms: _807  and  _808
REMARK  329  A    between atoms: _810  and  _812
REMARK  330  A    between atoms: _812  and  _813
REMARK  331  A    between atoms: _815  and  _817
REMARK  332  A    between atoms: _817  and  _818
REMARK  333  A    between atoms: _817  and  _820
REMARK  334  A    between atoms: _820  and  _821
REMARK  335  A    between atoms: _826  and  _827
REMARK  336  A    between atoms: _829  and  _831
REMARK  337  A    between atoms: _831  and  _832
REMARK  338  A    between atoms: _831  and  _834
REMARK  339  A    between atoms: _834  and  _835
REMARK  340  A    between atoms: _840  and  _841
REMARK  341  A    between atoms: _843  and  _845
REMARK  342  A    between atoms: _845  and  _846
REMARK  343  A    between atoms: _845  and  _848
REMARK  344  A    between atoms: _848  and  _849
REMARK  345  A    between atoms: _853  and  ZN_1037
REMARK  346  A    between atoms: _854  and  _856
REMARK  347  A    between atoms: _856  and  _857
REMARK  348  A    between atoms: _856  and  _859
REMARK  349  A    between atoms: _859  and  _860
REMARK  350  A    between atoms: _860  and  _861
REMARK  351  A    between atoms: _864  and  _866
REMARK  352  A    between atoms: _866  and  _867
REMARK  353  A    between atoms: _866  and  _869
REMARK  354  A    between atoms: _869  and  _870
REMARK  355  A    between atoms: _870  and  _871
REMARK  356  A    between atoms: _871  and  _872
REMARK  357  A    between atoms: _881  and  _883
REMARK  358  A    between atoms: _883  and  _884
REMARK  359  A    between atoms: _883  and  _886
REMARK  360  A    between atoms: _886  and  _887
REMARK  361  A    between atoms: _887  and  _888
REMARK  362  A    between atoms: _888  and  _889
REMARK  363  A    between atoms: _889  and  _890
REMARK  364  A    between atoms: _894  and  _896
REMARK  365  A    between atoms: _896  and  _897
REMARK  366  A    between atoms: _896  and  _899
REMARK  367  A    between atoms: _899  and  _900
REMARK  368  A    between atoms: _905  and  _906
REMARK  369  A    between atoms: _908  and  _910
REMARK  370  A    between atoms: _910  and  _911
REMARK  371  A    between atoms: _910  and  _913
REMARK  372  A    between atoms: _913  and  _914
REMARK  373  A    between atoms: _914  and  _915
REMARK  374  A    between atoms: _915  and  _916
REMARK  375  A    between atoms: _916  and  _917
REMARK  376  A    between atoms: _921  and  _923
REMARK  377  A    between atoms: _923  and  _924
REMARK  378  A    between atoms: _923  and  _926
REMARK  379  A    between atoms: _926  and  _927
REMARK  380  A    between atoms: _932  and  _933
REMARK  381  A    between atoms: _935  and  _937
REMARK  382  A    between atoms: _937  and  _938
REMARK  383  A    between atoms: _937  and  _940
REMARK  384  A    between atoms: _940  and  _941
REMARK  385  A    between atoms: _946  and  _947
REMARK  386  A    between atoms: _949  and  _951
REMARK  387  A    between atoms: _951  and  _952
REMARK  388  A    between atoms: _956  and  _957
REMARK  389  A    between atoms: _962  and  _964
REMARK  390  A    between atoms: _964  and  _965
REMARK  391  A    between atoms: _964  and  _967
REMARK  392  A    between atoms: _967  and  _968
REMARK  393  A    between atoms: _970  and  _972
REMARK  394  A    between atoms: _972  and  _973
REMARK  395  A    between atoms: _972  and  _975
REMARK  396  A    between atoms: _975  and  _976
REMARK  397  A    between atoms: _981  and  _983
REMARK  398  A    between atoms: _983  and  _984
REMARK  399  A    between atoms: _983  and  _986
REMARK  400  A    between atoms: _986  and  _987
REMARK  401  A    between atoms: _987  and  _988
REMARK  402  A    between atoms: _988  and  _989
REMARK  403  A    between atoms: _989  and  _990
REMARK  404  A    between atoms: _994  and  _996
REMARK  405  A    between atoms: _996  and  _997
REMARK  406  A    between atoms: _996  and  _999
REMARK  407  A    between atoms: _999  and  _1000
REMARK  408  A    between atoms: _1005  and  _1006
REMARK  409  A    between atoms: _1008  and  _1010
REMARK  410  A    between atoms: _1010  and  _1011
REMARK  411  A    between atoms: _1014  and  _1016
REMARK  412  A    between atoms: _1016  and  _1017
REMARK  413  A    between atoms: _1019  and  _1021
REMARK  414  A    between atoms: _1021  and  _1022
REMARK  415  A    between atoms: _1021  and  _1024
REMARK  416  A    between atoms: _1024  and  _1025
REMARK  417  A    between atoms: _1025  and  _1026
REMARK  418  A    between atoms: _1029  and  _1031
REMARK  419  A    between atoms: _1031  and  _1032
REMARK  420  A    between atoms: _1031  and  _1034
REMARK  421  A    between atoms: _1034  and  _1035
REMARK                            x       y       z     vdW  Elec       q    Type
REMARK                         _______ _______ _______ _____ _____    ______ ____
ROOT
ATOM      1  CG  TRP A   1      15.762  36.608  39.844  0.00  0.00    -0.002 A 
ATOM      2  CD1 TRP A   1      16.285  37.864  40.150  0.00  0.00    +0.068 A 
ATOM      3  NE1 TRP A   1      15.526  38.858  39.513  0.00  0.00    -0.352 N 
ATOM      4  HE1 TRP A   1      15.669  39.885  39.595  0.00  0.00    +0.166 HD
ATOM      5  CE2 TRP A   1      14.556  38.229  38.758  0.00  0.00    +0.056 A 
ATOM      6  CZ2 TRP A   1      13.509  38.788  38.011  0.00  0.00    +0.017 A 
ATOM      7  CH2 TRP A   1      12.610  37.937  37.399  0.00  0.00    +0.001 A 
ATOM      8  CZ3 TRP A   1      12.702  36.522  37.552  0.00  0.00    +0.000 A 
ATOM      9  CE3 TRP A   1      13.723  35.970  38.348  0.00  0.00    +0.001 A 
ATOM     10  CD2 TRP A   1      14.653  36.835  38.986  0.00  0.00    +0.013 A 
ENDROOT
BRANCH   1  11
ATOM     11  CB  TRP A   1      16.187  35.281  40.349  0.00  0.00    +0.053 C 
BRANCH  11  12
ATOM     12  CA  TRP A   1      15.055  34.625  41.217  0.00  0.00    +0.137 C 
BRANCH  12  13
ATOM     13  N   TRP A   1      15.033  35.161  42.609  0.00  0.00    -0.239 NA
ATOM     14  H   TRP A   1      15.869  35.638  43.002  0.00  0.00    +0.142 HD
ENDBRANCH  12  13
BRANCH  12  15
ATOM     15  C   TRP A   1      15.188  33.112  41.244  0.00  0.00    +0.224 C 
ATOM     16  O   TRP A   1      14.430  32.422  40.597  0.00  0.00    -0.287 OA
ENDBRANCH  12  15
ENDBRANCH  11  12
ENDBRANCH   1  11
TORSDOF 4
REMARK  Name = ../refined-set-2016/2xef/2xef_pocket.pdb
REMARK  421 active torsions:
REMARK  status: ('A' for Active; 'I' for Inactive)
REMARK    1  A    between atoms: _1  and  _3
REMARK    2  A    between atoms: _3  and  _4
REMARK    3  A    between atoms: _7  and  _9
REMARK    4  A    between atoms: _9  and  _10
REMARK    5  A    between atoms: _9  and  _12
REMARK    6  A    between atoms: _12  and  _13
REMARK    7  A    between atoms: _19  and  _21
REMARK    8  A    between atoms: _21  and  _22
REMARK    9  A    between atoms: _21  and  _24
REMARK   10  A    between atoms: _24  and  _25
REMARK   11  A    between atoms: _30  and  _31
REMARK   12  A    between atoms: _33  and  _35
REMARK   13  A    between atoms: _35  and  _36
REMARK   14  A    between atoms: _38  and  _40
REMARK   15  A    between atoms: _40  and  _41
REMARK   16  A    between atoms: _40  and  _43
REMARK   17  A    between atoms: _43  and  _44
REMARK   18  A    between atoms: _44  and  _45
REMARK   19  A    between atoms: _45  and  _46
REMARK   20  A    between atoms: _46  and  _47
REMARK   21  A    between atoms: _51  and  _53
REMARK   22  A    between atoms: _53  and  _54
REMARK   23  A    between atoms: _53  and  _56
REMARK   24  A    between atoms: _59  and  _61
REMARK   25  A    between atoms: _61  and  _62
REMARK   26  A    between atoms: _61  and  _64
REMARK   27  A    between atoms: _64  and  _65
REMARK   28  A    between atoms: _71  and  _73
REMARK   29  A    between atoms: _73  and  _74
REMARK   30  A    between atoms: _73  and  _76
REMARK   31  A    between atoms: _76  and  _77
REMARK   32  A    between atoms: _77  and  _78
REMARK   33  A    between atoms: _78  and  _79
REMARK   34  A    between atoms: _88  and  _90
REMARK   35  A    between atoms: _90  and  _91
REMARK   36  A    between atoms: _93  and  _95
REMARK   37  A    between atoms: _95  and  _96
REMARK   38  A    between atoms: _95  and  _98
REMARK   39  A    between atoms: _98  and  _99
REMARK   40  A    between atoms: _99  and  _100
REMARK   41  A    between atoms: _100  and  _101
REMARK   42  A    between atoms: _101  and  _102
REMARK   43  A    between atoms: _106  and  _108
REMARK   44  A    between atoms: _108  and  _109
REMARK   45  A    between atoms: _108  and  _111
REMARK   46  A    between atoms: _111  and  _112
REMARK   47  A    between atoms: _117  and  _118
REMARK   48  A    between atoms: _120  and  _122
REMARK   49  A    between atoms: _122  and  _123
REMARK   50  A    between atoms: _122  and  _125
REMARK   51  A    between atoms: _125  and  _126
REMARK   52  A    between atoms: _126  and  _127
REMARK   53  A    between atoms: _132  and  _134
REMARK   54  A    between atoms: _134  and  _135
REMARK   55  A    between atoms: _134  and  _137
REMARK   56  A    between atoms: _137  and  _138
REMARK   57  A    between atoms: _138  and  _139
REMARK   58  A    between atoms: _139  and  _140
REMARK   59  A    between atoms: _149  and  _151
REMARK   60  A    between atoms: _151  and  _152
REMARK   61  A    between atoms: _154  and  _156
REMARK   62  A    between atoms: _156  and  _157
REMARK   63  A    between atoms: _156  and  _159
REMARK   64  A    between atoms: _159  and  _160
REMARK   65  A    between atoms: _165  and  _167
REMARK   66  A    between atoms: _167  and  _168
REMARK   67  A    between atoms: _167  and  _170
REMARK   68  A    between atoms: _170  and  _171
REMARK   69  A    between atoms: _174  and  _176
REMARK   70  A    between atoms: _176  and  _177
REMARK   71  A    between atoms: _176  and  _179
REMARK   72  A    between atoms: _179  and  _180
REMARK   73  A    between atoms: _183  and  _185
REMARK   74  A    between atoms: _185  and  _186
REMARK   75  A    between atoms: _185  and  _188
REMARK   76  A    between atoms: _188  and  _189
REMARK   77  A    between atoms: _194  and  _196
REMARK   78  A    between atoms: _196  and  _197
REMARK   79  A    between atoms: _196  and  _199
REMARK   80  A    between atoms: _199  and  _200
REMARK   81  A    between atoms: _203  and  _205
REMARK   82  A    between atoms: _205  and  _206
REMARK   83  A    between atoms: _205  and  _208
REMARK   84  A    between atoms: _208  and  _209
REMARK   85  A    between atoms: _214  and  _216
REMARK   86  A    between atoms: _216  and  _217
REMARK   87  A    between atoms: _219  and  _221
REMARK   88  A    between atoms: _221  and  _222
REMARK   89  A    between atoms: _224  and  _226
REMARK   90  A    between atoms: _226  and  _227
REMARK   91  A    between atoms: _226  and  _229
REMARK   92  A    between atoms: _229  and  _230
REMARK   93  A    between atoms: _234  and  ZN_1038
REMARK   94  A    between atoms: _235  and  _237
REMARK   95  A    between atoms: _237  and  _238
REMARK   96  A    between atoms: _237  and  _240
REMARK   97  A    between atoms: _240  and  _241
REMARK   98  A    between atoms: _244  and  _246
REMARK   99  A    between atoms: _246  and  _247
REMARK  100  A    between atoms: _246  and  _249
REMARK  101  A    between atoms: _249  and  _250
REMARK  102  A    between atoms: _260  and  _262
REMARK  103  A    between atoms: _262  and  _263
REMARK  104  A    between atoms: _262  and  _265
REMARK  105  A    between atoms: _265  and  _266
REMARK  106  A    between atoms: _269  and  _271
REMARK  107  A    between atoms: _271  and  _272
REMARK  108  A    between atoms: _271  and  _274
REMARK  109  A    between atoms: _274  and  _275
REMARK  110  A    between atoms: _279  and  _280
REMARK  111  A    between atoms: _285  and  _287
REMARK  112  A    between atoms: _287  and  _288
REMARK  113  A    between atoms: _291  and  _293
REMARK  114  A    between atoms: _293  and  _294
REMARK  115  A    between atoms: _293  and  _296
REMARK  116  A    between atoms: _296  and  _297
REMARK  117  A    between atoms: _297  and  _298
REMARK  118  A    between atoms: _301  and  _303
REMARK  119  A    between atoms: _303  and  _304
REMARK  120  A    between atoms: _303  and  _306
REMARK  121  A    between atoms: _306  and  _307
REMARK  122  A    between atoms: _307  and  _308
REMARK  123  A    between atoms: _308  and  _310
REMARK  124  A    between atoms: _310  and  ZN_1037
REMARK  125  A    between atoms: _311  and  _313
REMARK  126  A    between atoms: _313  and  _314
REMARK  127  A    between atoms: _313  and  _316
REMARK  128  A    between atoms: _316  and  _317
REMARK  129  A    between atoms: _323  and  _325
REMARK  130  A    between atoms: _325  and  _326
REMARK  131  A    between atoms: _328  and  _330
REMARK  132  A    between atoms: _330  and  _331
REMARK  133  A    between atoms: _330  and  _333
REMARK  134  A    between atoms: _333  and  _334
REMARK  135  A    between atoms: _337  and  _339
REMARK  136  A    between atoms: _339  and  _340
REMARK  137  A    between atoms: _339  and  _342
REMARK  138  A    between atoms: _342  and  _343
REMARK  139  A    between atoms: _346  and  _348
REMARK  140  A    between atoms: _348  and  _349
REMARK  141  A    between atoms: _348  and  _351
REMARK  142  A    between atoms: _351  and  _352
REMARK  143  A    between atoms: _357  and  _359
REMARK  144  A    between atoms: _359  and  _360
REMARK  145  A    between atoms: _359  and  _362
REMARK  146  A    between atoms: _362  and  _363
REMARK  147  A    between atoms: _363  and  _365
REMARK  148  A    between atoms: _365  and  ZN_1038
REMARK  149  A    between atoms: _366  and  _368
REMARK  150  A    between atoms: _368  and  _369
REMARK  151  A    between atoms: _368  and  _371
REMARK  152  A    between atoms: _371  and  _372
REMARK  153  A    between atoms: _374  and  _376
REMARK  154  A    between atoms: _376  and  _377
REMARK  155  A    between atoms: _376  and  _379
REMARK  156  A    between atoms: _379  and  _380
REMARK  157  A    between atoms: _382  and  _384
REMARK  158  A    between atoms: _384  and  _385
REMARK  159  A    between atoms: _384  and  _387
REMARK  160  A    between atoms: _387  and  _388
REMARK  161  A    between atoms: _391  and  _393
REMARK  162  A    between atoms: _393  and  _394
REMARK  163  A    between atoms: _393  and  _396
REMARK  164  A    between atoms: _396  and  _397
REMARK  165  A    between atoms: _397  and  _398
REMARK  166  A    between atoms: _401  and  _403
REMARK  167  A    between atoms: _403  and  _404
REMARK  168  A    between atoms: _403  and  _406
REMARK  169  A    between atoms: _406  and  _407
REMARK  170  A    between atoms: _412  and  _413
REMARK  171  A    between atoms: _415  and  _417
REMARK  172  A    between atoms: _417  and  _418
REMARK  173  A    between atoms: _417  and  _420
REMARK  174  A    between atoms: _420  and  _421
REMARK  175  A    between atoms: _424  and  _426
REMARK  176  A    between atoms: _426  and  _427
REMARK  177  A    between atoms: _426  and  _429
REMARK  178  A    between atoms: _429  and  _430
REMARK  179  A    between atoms: _433  and  _435
REMARK  180  A    between atoms: _435  and  _436
REMARK  181  A    between atoms: _435  and  _438
REMARK  182  A    between atoms: _438  and  _439
REMARK  183  A    between atoms: _439  and  _440
REMARK  184  A    between atoms: _440  and  _441
REMARK  185  A    between atoms: _450  and  _452
REMARK  186  A    between atoms: _452  and  _453
REMARK  187  A    between atoms: _452  and  _455
REMARK  188  A    between atoms: _458  and  _460
REMARK  189  A    between atoms: _460  and  _461
REMARK  190  A    between atoms: _460  and  _463
REMARK  191  A    between atoms: _463  and  _464
REMARK  192  A    between atoms: _467  and  _469
REMARK  193  A    between atoms: _469  and  _470
REMARK  194  A    between atoms: _469  and  _472
REMARK  195  A    between atoms: _474  and  _476
REMARK  196  A    between atoms: _476  and  _477
REMARK  197  A    between atoms: _476  and  _479
REMARK  198  A    between atoms: _479  and  _480
REMARK  199  A    between atoms: _490  and  _492
REMARK  200  A    between atoms: _492  and  _493
REMARK  201  A    between atoms: _492  and  _495
REMARK  202  A    between atoms: _495  and  _496
REMARK  203  A    between atoms: _496  and  _497
REMARK  204  A    between atoms: _497  and  _498
REMARK  205  A    between atoms: _498  and  _499
REMARK  206  A    between atoms: _503  and  _505
REMARK  207  A    between atoms: _505  and  _506
REMARK  208  A    between atoms: _505  and  _508
REMARK  209  A    between atoms: _508  and  _509
REMARK  210  A    between atoms: _512  and  _513
REMARK  211  A    between atoms: _519  and  _520
REMARK  212  A    between atoms: _525  and  _527
REMARK  213  A    between atoms: _527  and  _528
REMARK  214  A    between atoms: _527  and  _530
REMARK  215  A    between atoms: _530  and  _531
REMARK  216  A    between atoms: _531  and  _532
REMARK  217  A    between atoms: _535  and  _537
REMARK  218  A    between atoms: _537  and  _538
REMARK  219  A    between atoms: _537  and  _540
REMARK  220  A    between atoms: _540  and  _541
REMARK  221  A    between atoms: _541  and  _542
REMARK  222  A    between atoms: _542  and  _543
REMARK  223  A    between atoms: _552  and  _554
REMARK  224  A    between atoms: _554  and  _555
REMARK  225  A    between atoms: _554  and  _557
REMARK  226  A    between atoms: _557  and  _558
REMARK  227  A    between atoms: _561  and  _563
REMARK  228  A    between atoms: _563  and  _564
REMARK  229  A    between atoms: _563  and  _566
REMARK  230  A    between atoms: _566  and  _567
REMARK  231  A    between atoms: _569  and  _571
REMARK  232  A    between atoms: _571  and  _572
REMARK  233  A    between atoms: _571  and  _574
REMARK  234  A    between atoms: _574  and  _575
REMARK  235  A    between atoms: _575  and  _576
REMARK  236  A    between atoms: _576  and  _577
REMARK  237  A    between atoms: _577  and  _578
REMARK  238  A    between atoms: _582  and  _584
REMARK  239  A    between atoms: _584  and  _585
REMARK  240  A    between atoms: _584  and  _587
REMARK  241  A    between atoms: _587  and  _588
REMARK  242  A    between atoms: _591  and  _593
REMARK  243  A    between atoms: _593  and  _594
REMARK  244  A    between atoms: _596  and  _598
REMARK  245  A    between atoms: _598  and  _599
REMARK  246  A    between atoms: _598  and  _601
REMARK  247  A    between atoms: _601  and  _602
REMARK  248  A    between atoms: _604  and  _606
REMARK  249  A    between atoms: _606  and  _607
REMARK  250  A    between atoms: _609  and  _611
REMARK  251  A    between atoms: _611  and  _612
REMARK  252  A    between atoms: _611  and  _614
REMARK  253  A    between atoms: _614  and  _615
REMARK  254  A    between atoms: _620  and  _622
REMARK  255  A    between atoms: _622  and  _623
REMARK  256  A    between atoms: _622  and  _625
REMARK  257  A    between atoms: _625  and  _626
REMARK  258  A    between atoms: _629  and  _631
REMARK  259  A    between atoms: _631  and  _632
REMARK  260  A    between atoms: _631  and  _634
REMARK  261  A    between atoms: _634  and  _635
REMARK  262  A    between atoms: _641  and  _643
REMARK  263  A    between atoms: _643  and  _644
REMARK  264  A    between atoms: _643  and  _646
REMARK  265  A    between atoms: _646  and  _647
REMARK  266  A    between atoms: _647  and  _648
REMARK  267  A    between atoms: _651  and  _653
REMARK  268  A    between atoms: _653  and  _654
REMARK  269  A    between atoms: _653  and  _656
REMARK  270  A    between atoms: _656  and  _657
REMARK  271  A    between atoms: _657  and  _658
REMARK  272  A    between atoms: _663  and  _665
REMARK  273  A    between atoms: _665  and  _666
REMARK  274  A    between atoms: _665  and  _668
REMARK  275  A    between atoms: _668  and  _669
REMARK  276  A    between atoms: _669  and  _670
REMARK  277  A    between atoms: _670  and  _671
REMARK  278  A    between atoms: _680  and  _682
REMARK  279  A    between atoms: _682  and  _683
REMARK  280  A    between atoms: _682  and  _685
REMARK  281  A    between atoms: _685  and  _686
REMARK  282  A    between atoms: _686  and  _687
REMARK  283  A    between atoms: _687  and  _688
REMARK  284  A    between atoms: _697  and  _699
REMARK  285  A    between atoms: _699  and  _700
REMARK  286  A    between atoms: _699  and  _702
REMARK  287  A    between atoms: _702  and  _703
REMARK  288  A    between atoms: _708  and  _709
REMARK  289  A    between atoms: _711  and  _713
REMARK  290  A    between atoms: _713  and  _714
REMARK  291  A    between atoms: _713  and  _716
REMARK  292  A    between atoms: _716  and  _717
REMARK  293  A    between atoms: _720  and  _722
REMARK  294  A    between atoms: _722  and  _723
REMARK  295  A    between atoms: _722  and  _725
REMARK  296  A    between atoms: _725  and  _726
REMARK  297  A    between atoms: _726  and  _727
REMARK  298  A    between atoms: _727  and  _728
REMARK  299  A    between atoms: _728  and  _729
REMARK  300  A    between atoms: _733  and  _735
REMARK  301  A    between atoms: _735  and  _736
REMARK  302  A    between atoms: _735  and  _738
REMARK  303  A    between atoms: _738  and  _739
REMARK  304  A    between atoms: _744  and  _746
REMARK  305  A    between atoms: _746  and  _747
REMARK  306  A    between atoms: _746  and  _749
REMARK  307  A    between atoms: _749  and  _750
REMARK  308  A    between atoms: _760  and  _762
REMARK  309  A    between atoms: _762  and  _763
REMARK  310  A    between atoms: _762  and  _765
REMARK  311  A    between atoms: _765  and  _766
REMARK  312  A    between atoms: _766  and  _767
REMARK  313  A    between atoms: _770  and  _772
REMARK  314  A    between atoms: _772  and  _773
REMARK  315  A    between atoms: _772  and  _775
REMARK  316  A    between atoms: _775  and  _776
REMARK  317  A    between atoms: _779  and  _781
REMARK  318  A    between atoms: _781  and  _782
REMARK  319  A    between atoms: _781  and  _784
REMARK  320  A    between atoms: _784  and  _785
REMARK  321  A    between atoms: _790  and  _792
REMARK  322  A    between atoms: _792  and  _793
REMARK  323  A    between atoms: _792  and  _795
REMARK  324  A    between atoms: _795  and  _796
REMARK  325  A    between atoms: _802  and  _804
REMARK  326  A    between atoms: _804  and  _805
REMARK  327  A    between atoms: _804  and  _807
REMARK  328  A    between atoms: _807  and  _808
REMARK  329  A    between atoms: _810  and  _812
REMARK  330  A    between atoms: _812  and  _813
REMARK  331  A    between atoms: _815  and  _817
REMARK  332  A    between atoms: _817  and  _818
REMARK  333  A    between atoms: _817  and  _820
REMARK  334  A    between atoms: _820  and  _821
REMARK  335  A    between atoms: _826  and  _827
REMARK  336  A    between atoms: _829  and  _831
REMARK  337  A    between atoms: _831  and  _832
REMARK  338  A    between atoms: _831  and  _834
REMARK  339  A    between atoms: _834  and  _835
REMARK  340  A    between atoms: _840  and  _841
REMARK  341  A    between atoms: _843  and  _845
REMARK  342  A    between atoms: _845  and  _846
REMARK  343  A    between atoms: _845  and  _848
REMARK  344  A    between atoms: _848  and  _849
REMARK  345  A    between atoms: _853  and  ZN_1037
REMARK  346  A    between atoms: _854  and  _856
REMARK  347  A    between atoms: _856  and  _857
REMARK  348  A    between atoms: _856  and  _859
REMARK  349  A    between atoms: _859  and  _860
REMARK  350  A    between atoms: _860  and  _861
REMARK  351  A    between atoms: _864  and  _866
REMARK  352  A    between atoms: _866  and  _867
REMARK  353  A    between atoms: _866  and  _869
REMARK  354  A    between atoms: _869  and  _870
REMARK  355  A    between atoms: _870  and  _871
REMARK  356  A    between atoms: _871  and  _872
REMARK  357  A    between atoms: _881  and  _883
REMARK  358  A    between atoms: _883  and  _884
REMARK  359  A    between atoms: _883  and  _886
REMARK  360  A    between atoms: _886  and  _887
REMARK  361  A    between atoms: _887  and  _888
REMARK  362  A    between atoms: _888  and  _889
REMARK  363  A    between atoms: _889  and  _890
REMARK  364  A    between atoms: _894  and  _896
REMARK  365  A    between atoms: _896  and  _897
REMARK  366  A    between atoms: _896  and  _899
REMARK  367  A    between atoms: _899  and  _900
REMARK  368  A    between atoms: _905  and  _906
REMARK  369  A    between atoms: _908  and  _910
REMARK  370  A    between atoms: _910  and  _911
REMARK  371  A    between atoms: _910  and  _913
REMARK  372  A    between atoms: _913  and  _914
REMARK  373  A    between atoms: _914  and  _915
REMARK  374  A    between atoms: _915  and  _916
REMARK  375  A    between atoms: _916  and  _917
REMARK  376  A    between atoms: _921  and  _923
REMARK  377  A    between atoms: _923  and  _924
REMARK  378  A    between atoms: _923  and  _926
REMARK  379  A    between atoms: _926  and  _927
REMARK  380  A    between atoms: _932  and  _933
REMARK  381  A    between atoms: _935  and  _937
REMARK  382  A    between atoms: _937  and  _938
REMARK  383  A    between atoms: _937  and  _940
REMARK  384  A    between atoms: _940  and  _941
REMARK  385  A    between atoms: _946  and  _947
REMARK  386  A    between atoms: _949  and  _951
REMARK  387  A    between atoms: _951  and  _952
REMARK  388  A    between atoms: _956  and  _957
REMARK  389  A    between atoms: _962  and  _964
REMARK  390  A    between atoms: _964  and  _965
REMARK  391  A    between atoms: _964  and  _967
REMARK  392  A    between atoms: _967  and  _968
REMARK  393  A    between atoms: _970  and  _972
REMARK  394  A    between atoms: _972  and  _973
REMARK  395  A    between atoms: _972  and  _975
REMARK  396  A    between atoms: _975  and  _976
REMARK  397  A    between atoms: _981  and  _983
REMARK  398  A    between atoms: _983  and  _984
REMARK  399  A    between atoms: _983  and  _986
REMARK  400  A    between atoms: _986  and  _987
REMARK  401  A    between atoms: _987  and  _988
REMARK  402  A    between atoms: _988  and  _989
REMARK  403  A    between atoms: _989  and  _990
REMARK  404  A    between atoms: _994  and  _996
REMARK  405  A    between atoms: _996  and  _997
REMARK  406  A    between atoms: _996  and  _999
REMARK  407  A    between atoms: _999  and  _1000
REMARK  408  A    between atoms: _1005  and  _1006
REMARK  409  A    between atoms: _1008  and  _1010
REMARK  410  A    between atoms: _1010  and  _1011
REMARK  411  A    between atoms: _1014  and  _1016
REMARK  412  A    between atoms: _1016  and  _1017
REMARK  413  A    between atoms: _1019  and  _1021
REMARK  414  A    between atoms: _1021  and  _1022
REMARK  415  A    between atoms: _1021  and  _1024
REMARK  416  A    between atoms: _1024  and  _1025
REMARK  417  A    between atoms: _1025  and  _1026
REMARK  418  A    between atoms: _1029  and  _1031
REMARK  419  A    between atoms: _1031  and  _1032
REMARK  420  A    between atoms: _1031  and  _1034
REMARK  421  A    between atoms: _1034  and  _1035
REMARK                            x       y       z     vdW  Elec       q    Type
REMARK                         _______ _______ _______ _____ _____    ______ ____
ROOT
ATOM      1  CB  ASN A   1      15.566  48.939  52.649  0.00  0.00    +0.110 C 
ENDROOT
BRANCH   1   2
ATOM      2  CG  ASN A   1      14.975  48.120  51.522  0.00  0.00    +0.221 C 
ATOM      3  OD1 ASN A   1      13.748  47.976  51.416  0.00  0.00    -0.275 OA
ATOM      4  ND2 ASN A   1      15.824  47.577  50.659  0.00  0.00    -0.329 N 
ATOM      5 HD21 ASN A   1      16.848  47.718  50.778  0.00  0.00    +0.145 HD
ATOM      6 HD22 ASN A   1      15.466  47.010  49.864  0.00  0.00    +0.145 HD
ENDBRANCH   1   2
BRANCH   1   7
ATOM      7  CA  ASN A   1      15.064  48.489  54.034  0.00  0.00    +0.142 C 
BRANCH   7   8
ATOM      8  N   ASN A   1      15.096  49.643  54.948  0.00  0.00    -0.239 NA
ATOM      9  H   ASN A   1      15.701  50.462  54.735  0.00  0.00    +0.142 HD
ENDBRANCH   7   8
BRANCH   7  10
ATOM     10  C   ASN A   1      15.872  47.328  54.561  0.00  0.00    +0.225 C 
ATOM     11  O   ASN A   1      16.770  47.520  55.385  0.00  0.00    -0.287 OA
ENDBRANCH   7  10
ENDBRANCH   1   7
TORSDOF 4
REMARK  Name = ../refined-set-2016/2xef/2xef_pocket.pdb
REMARK  421 active torsions:
REMARK  status: ('A' for Active; 'I' for Inactive)
REMARK    1  A    between atoms: _1  and  _3
REMARK    2  A    between atoms: _3  and  _4
REMARK    3  A    between atoms: _7  and  _9
REMARK    4  A    between atoms: _9  and  _10
REMARK    5  A    between atoms: _9  and  _12
REMARK    6  A    between atoms: _12  and  _13
REMARK    7  A    between atoms: _19  and  _21
REMARK    8  A    between atoms: _21  and  _22
REMARK    9  A    between atoms: _21  and  _24
REMARK   10  A    between atoms: _24  and  _25
REMARK   11  A    between atoms: _30  and  _31
REMARK   12  A    between atoms: _33  and  _35
REMARK   13  A    between atoms: _35  and  _36
REMARK   14  A    between atoms: _38  and  _40
REMARK   15  A    between atoms: _40  and  _41
REMARK   16  A    between atoms: _40  and  _43
REMARK   17  A    between atoms: _43  and  _44
REMARK   18  A    between atoms: _44  and  _45
REMARK   19  A    between atoms: _45  and  _46
REMARK   20  A    between atoms: _46  and  _47
REMARK   21  A    between atoms: _51  and  _53
REMARK   22  A    between atoms: _53  and  _54
REMARK   23  A    between atoms: _53  and  _56
REMARK   24  A    between atoms: _59  and  _61
REMARK   25  A    between atoms: _61  and  _62
REMARK   26  A    between atoms: _61  and  _64
REMARK   27  A    between atoms: _64  and  _65
REMARK   28  A    between atoms: _71  and  _73
REMARK   29  A    between atoms: _73  and  _74
REMARK   30  A    between atoms: _73  and  _76
REMARK   31  A    between atoms: _76  and  _77
REMARK   32  A    between atoms: _77  and  _78
REMARK   33  A    between atoms: _78  and  _79
REMARK   34  A    between atoms: _88  and  _90
REMARK   35  A    between atoms: _90  and  _91
REMARK   36  A    between atoms: _93  and  _95
REMARK   37  A    between atoms: _95  and  _96
REMARK   38  A    between atoms: _95  and  _98
REMARK   39  A    between atoms: _98  and  _99
REMARK   40  A    between atoms: _99  and  _100
REMARK   41  A    between atoms: _100  and  _101
REMARK   42  A    between atoms: _101  and  _102
REMARK   43  A    between atoms: _106  and  _108
REMARK   44  A    between atoms: _108  and  _109
REMARK   45  A    between atoms: _108  and  _111
REMARK   46  A    between atoms: _111  and  _112
REMARK   47  A    between atoms: _117  and  _118
REMARK   48  A    between atoms: _120  and  _122
REMARK   49  A    between atoms: _122  and  _123
REMARK   50  A    between atoms: _122  and  _125
REMARK   51  A    between atoms: _125  and  _126
REMARK   52  A    between atoms: _126  and  _127
REMARK   53  A    between atoms: _132  and  _134
REMARK   54  A    between atoms: _134  and  _135
REMARK   55  A    between atoms: _134  and  _137
REMARK   56  A    between atoms: _137  and  _138
REMARK   57  A    between atoms: _138  and  _139
REMARK   58  A    between atoms: _139  and  _140
REMARK   59  A    between atoms: _149  and  _151
REMARK   60  A    between atoms: _151  and  _152
REMARK   61  A    between atoms: _154  and  _156
REMARK   62  A    between atoms: _156  and  _157
REMARK   63  A    between atoms: _156  and  _159
REMARK   64  A    between atoms: _159  and  _160
REMARK   65  A    between atoms: _165  and  _167
REMARK   66  A    between atoms: _167  and  _168
REMARK   67  A    between atoms: _167  and  _170
REMARK   68  A    between atoms: _170  and  _171
REMARK   69  A    between atoms: _174  and  _176
REMARK   70  A    between atoms: _176  and  _177
REMARK   71  A    between atoms: _176  and  _179
REMARK   72  A    between atoms: _179  and  _180
REMARK   73  A    between atoms: _183  and  _185
REMARK   74  A    between atoms: _185  and  _186
REMARK   75  A    between atoms: _185  and  _188
REMARK   76  A    between atoms: _188  and  _189
REMARK   77  A    between atoms: _194  and  _196
REMARK   78  A    between atoms: _196  and  _197
REMARK   79  A    between atoms: _196  and  _199
REMARK   80  A    between atoms: _199  and  _200
REMARK   81  A    between atoms: _203  and  _205
REMARK   82  A    between atoms: _205  and  _206
REMARK   83  A    between atoms: _205  and  _208
REMARK   84  A    between atoms: _208  and  _209
REMARK   85  A    between atoms: _214  and  _216
REMARK   86  A    between atoms: _216  and  _217
REMARK   87  A    between atoms: _219  and  _221
REMARK   88  A    between atoms: _221  and  _222
REMARK   89  A    between atoms: _224  and  _226
REMARK   90  A    between atoms: _226  and  _227
REMARK   91  A    between atoms: _226  and  _229
REMARK   92  A    between atoms: _229  and  _230
REMARK   93  A    between atoms: _234  and  ZN_1038
REMARK   94  A    between atoms: _235  and  _237
REMARK   95  A    between atoms: _237  and  _238
REMARK   96  A    between atoms: _237  and  _240
REMARK   97  A    between atoms: _240  and  _241
REMARK   98  A    between atoms: _244  and  _246
REMARK   99  A    between atoms: _246  and  _247
REMARK  100  A    between atoms: _246  and  _249
REMARK  101  A    between atoms: _249  and  _250
REMARK  102  A    between atoms: _260  and  _262
REMARK  103  A    between atoms: _262  and  _263
REMARK  104  A    between atoms: _262  and  _265
REMARK  105  A    between atoms: _265  and  _266
REMARK  106  A    between atoms: _269  and  _271
REMARK  107  A    between atoms: _271  and  _272
REMARK  108  A    between atoms: _271  and  _274
REMARK  109  A    between atoms: _274  and  _275
REMARK  110  A    between atoms: _279  and  _280
REMARK  111  A    between atoms: _285  and  _287
REMARK  112  A    between atoms: _287  and  _288
REMARK  113  A    between atoms: _291  and  _293
REMARK  114  A    between atoms: _293  and  _294
REMARK  115  A    between atoms: _293  and  _296
REMARK  116  A    between atoms: _296  and  _297
REMARK  117  A    between atoms: _297  and  _298
REMARK  118  A    between atoms: _301  and  _303
REMARK  119  A    between atoms: _303  and  _304
REMARK  120  A    between atoms: _303  and  _306
REMARK  121  A    between atoms: _306  and  _307
REMARK  122  A    between atoms: _307  and  _308
REMARK  123  A    between atoms: _308  and  _310
REMARK  124  A    between atoms: _310  and  ZN_1037
REMARK  125  A    between atoms: _311  and  _313
REMARK  126  A    between atoms: _313  and  _314
REMARK  127  A    between atoms: _313  and  _316
REMARK  128  A    between atoms: _316  and  _317
REMARK  129  A    between atoms: _323  and  _325
REMARK  130  A    between atoms: _325  and  _326
REMARK  131  A    between atoms: _328  and  _330
REMARK  132  A    between atoms: _330  and  _331
REMARK  133  A    between atoms: _330  and  _333
REMARK  134  A    between atoms: _333  and  _334
REMARK  135  A    between atoms: _337  and  _339
REMARK  136  A    between atoms: _339  and  _340
REMARK  137  A    between atoms: _339  and  _342
REMARK  138  A    between atoms: _342  and  _343
REMARK  139  A    between atoms: _346  and  _348
REMARK  140  A    between atoms: _348  and  _349
REMARK  141  A    between atoms: _348  and  _351
REMARK  142  A    between atoms: _351  and  _352
REMARK  143  A    between atoms: _357  and  _359
REMARK  144  A    between atoms: _359  and  _360
REMARK  145  A    between atoms: _359  and  _362
REMARK  146  A    between atoms: _362  and  _363
REMARK  147  A    between atoms: _363  and  _365
REMARK  148  A    between atoms: _365  and  ZN_1038
REMARK  149  A    between atoms: _366  and  _368
REMARK  150  A    between atoms: _368  and  _369
REMARK  151  A    between atoms: _368  and  _371
REMARK  152  A    between atoms: _371  and  _372
REMARK  153  A    between atoms: _374  and  _376
REMARK  154  A    between atoms: _376  and  _377
REMARK  155  A    between atoms: _376  and  _379
REMARK  156  A    between atoms: _379  and  _380
REMARK  157  A    between atoms: _382  and  _384
REMARK  158  A    between atoms: _384  and  _385
REMARK  159  A    between atoms: _384  and  _387
REMARK  160  A    between atoms: _387  and  _388
REMARK  161  A    between atoms: _391  and  _393
REMARK  162  A    between atoms: _393  and  _394
REMARK  163  A    between atoms: _393  and  _396
REMARK  164  A    between atoms: _396  and  _397
REMARK  165  A    between atoms: _397  and  _398
REMARK  166  A    between atoms: _401  and  _403
REMARK  167  A    between atoms: _403  and  _404
REMARK  168  A    between atoms: _403  and  _406
REMARK  169  A    between atoms: _406  and  _407
REMARK  170  A    between atoms: _412  and  _413
REMARK  171  A    between atoms: _415  and  _417
REMARK  172  A    between atoms: _417  and  _418
REMARK  173  A    between atoms: _417  and  _420
REMARK  174  A    between atoms: _420  and  _421
REMARK  175  A    between atoms: _424  and  _426
REMARK  176  A    between atoms: _426  and  _427
REMARK  177  A    between atoms: _426  and  _429
REMARK  178  A    between atoms: _429  and  _430
REMARK  179  A    between atoms: _433  and  _435
REMARK  180  A    between atoms: _435  and  _436
REMARK  181  A    between atoms: _435  and  _438
REMARK  182  A    between atoms: _438  and  _439
REMARK  183  A    between atoms: _439  and  _440
REMARK  184  A    between atoms: _440  and  _441
REMARK  185  A    between atoms: _450  and  _452
REMARK  186  A    between atoms: _452  and  _453
REMARK  187  A    between atoms: _452  and  _455
REMARK  188  A    between atoms: _458  and  _460
REMARK  189  A    between atoms: _460  and  _461
REMARK  190  A    between atoms: _460  and  _463
REMARK  191  A    between atoms: _463  and  _464
REMARK  192  A    between atoms: _467  and  _469
REMARK  193  A    between atoms: _469  and  _470
REMARK  194  A    between atoms: _469  and  _472
REMARK  195  A    between atoms: _474  and  _476
REMARK  196  A    between atoms: _476  and  _477
REMARK  197  A    between atoms: _476  and  _479
REMARK  198  A    between atoms: _479  and  _480
REMARK  199  A    between atoms: _490  and  _492
REMARK  200  A    between atoms: _492  and  _493
REMARK  201  A    between atoms: _492  and  _495
REMARK  202  A    between atoms: _495  and  _496
REMARK  203  A    between atoms: _496  and  _497
REMARK  204  A    between atoms: _497  and  _498
REMARK  205  A    between atoms: _498  and  _499
REMARK  206  A    between atoms: _503  and  _505
REMARK  207  A    between atoms: _505  and  _506
REMARK  208  A    between atoms: _505  and  _508
REMARK  209  A    between atoms: _508  and  _509
REMARK  210  A    between atoms: _512  and  _513
REMARK  211  A    between atoms: _519  and  _520
REMARK  212  A    between atoms: _525  and  _527
REMARK  213  A    between atoms: _527  and  _528
REMARK  214  A    between atoms: _527  and  _530
REMARK  215  A    between atoms: _530  and  _531
REMARK  216  A    between atoms: _531  and  _532
REMARK  217  A    between atoms: _535  and  _537
REMARK  218  A    between atoms: _537  and  _538
REMARK  219  A    between atoms: _537  and  _540
REMARK  220  A    between atoms: _540  and  _541
REMARK  221  A    between atoms: _541  and  _542
REMARK  222  A    between atoms: _542  and  _543
REMARK  223  A    between atoms: _552  and  _554
REMARK  224  A    between atoms: _554  and  _555
REMARK  225  A    between atoms: _554  and  _557
REMARK  226  A    between atoms: _557  and  _558
REMARK  227  A    between atoms: _561  and  _563
REMARK  228  A    between atoms: _563  and  _564
REMARK  229  A    between atoms: _563  and  _566
REMARK  230  A    between atoms: _566  and  _567
REMARK  231  A    between atoms: _569  and  _571
REMARK  232  A    between atoms: _571  and  _572
REMARK  233  A    between atoms: _571  and  _574
REMARK  234  A    between atoms: _574  and  _575
REMARK  235  A    between atoms: _575  and  _576
REMARK  236  A    between atoms: _576  and  _577
REMARK  237  A    between atoms: _577  and  _578
REMARK  238  A    between atoms: _582  and  _584
REMARK  239  A    between atoms: _584  and  _585
REMARK  240  A    between atoms: _584  and  _587
REMARK  241  A    between atoms: _587  and  _588
REMARK  242  A    between atoms: _591  and  _593
REMARK  243  A    between atoms: _593  and  _594
REMARK  244  A    between atoms: _596  and  _598
REMARK  245  A    between atoms: _598  and  _599
REMARK  246  A    between atoms: _598  and  _601
REMARK  247  A    between atoms: _601  and  _602
REMARK  248  A    between atoms: _604  and  _606
REMARK  249  A    between atoms: _606  and  _607
REMARK  250  A    between atoms: _609  and  _611
REMARK  251  A    between atoms: _611  and  _612
REMARK  252  A    between atoms: _611  and  _614
REMARK  253  A    between atoms: _614  and  _615
REMARK  254  A    between atoms: _620  and  _622
REMARK  255  A    between atoms: _622  and  _623
REMARK  256  A    between atoms: _622  and  _625
REMARK  257  A    between atoms: _625  and  _626
REMARK  258  A    between atoms: _629  and  _631
REMARK  259  A    between atoms: _631  and  _632
REMARK  260  A    between atoms: _631  and  _634
REMARK  261  A    between atoms: _634  and  _635
REMARK  262  A    between atoms: _641  and  _643
REMARK  263  A    between atoms: _643  and  _644
REMARK  264  A    between atoms: _643  and  _646
REMARK  265  A    between atoms: _646  and  _647
REMARK  266  A    between atoms: _647  and  _648
REMARK  267  A    between atoms: _651  and  _653
REMARK  268  A    between atoms: _653  and  _654
REMARK  269  A    between atoms: _653  and  _656
REMARK  270  A    between atoms: _656  and  _657
REMARK  271  A    between atoms: _657  and  _658
REMARK  272  A    between atoms: _663  and  _665
REMARK  273  A    between atoms: _665  and  _666
REMARK  274  A    between atoms: _665  and  _668
REMARK  275  A    between atoms: _668  and  _669
REMARK  276  A    between atoms: _669  and  _670
REMARK  277  A    between atoms: _670  and  _671
REMARK  278  A    between atoms: _680  and  _682
REMARK  279  A    between atoms: _682  and  _683
REMARK  280  A    between atoms: _682  and  _685
REMARK  281  A    between atoms: _685  and  _686
REMARK  282  A    between atoms: _686  and  _687
REMARK  283  A    between atoms: _687  and  _688
REMARK  284  A    between atoms: _697  and  _699
REMARK  285  A    between atoms: _699  and  _700
REMARK  286  A    between atoms: _699  and  _702
REMARK  287  A    between atoms: _702  and  _703
REMARK  288  A    between atoms: _708  and  _709
REMARK  289  A    between atoms: _711  and  _713
REMARK  290  A    between atoms: _713  and  _714
REMARK  291  A    between atoms: _713  and  _716
REMARK  292  A    between atoms: _716  and  _717
REMARK  293  A    between atoms: _720  and  _722
REMARK  294  A    between atoms: _722  and  _723
REMARK  295  A    between atoms: _722  and  _725
REMARK  296  A    between atoms: _725  and  _726
REMARK  297  A    between atoms: _726  and  _727
REMARK  298  A    between atoms: _727  and  _728
REMARK  299  A    between atoms: _728  and  _729
REMARK  300  A    between atoms: _733  and  _735
REMARK  301  A    between atoms: _735  and  _736
REMARK  302  A    between atoms: _735  and  _738
REMARK  303  A    between atoms: _738  and  _739
REMARK  304  A    between atoms: _744  and  _746
REMARK  305  A    between atoms: _746  and  _747
REMARK  306  A    between atoms: _746  and  _749
REMARK  307  A    between atoms: _749  and  _750
REMARK  308  A    between atoms: _760  and  _762
REMARK  309  A    between atoms: _762  and  _763
REMARK  310  A    between atoms: _762  and  _765
REMARK  311  A    between atoms: _765  and  _766
REMARK  312  A    between atoms: _766  and  _767
REMARK  313  A    between atoms: _770  and  _772
REMARK  314  A    between atoms: _772  and  _773
REMARK  315  A    between atoms: _772  and  _775
REMARK  316  A    between atoms: _775  and  _776
REMARK  317  A    between atoms: _779  and  _781
REMARK  318  A    between atoms: _781  and  _782
REMARK  319  A    between atoms: _781  and  _784
REMARK  320  A    between atoms: _784  and  _785
REMARK  321  A    between atoms: _790  and  _792
REMARK  322  A    between atoms: _792  and  _793
REMARK  323  A    between atoms: _792  and  _795
REMARK  324  A    between atoms: _795  and  _796
REMARK  325  A    between atoms: _802  and  _804
REMARK  326  A    between atoms: _804  and  _805
REMARK  327  A    between atoms: _804  and  _807
REMARK  328  A    between atoms: _807  and  _808
REMARK  329  A    between atoms: _810  and  _812
REMARK  330  A    between atoms: _812  and  _813
REMARK  331  A    between atoms: _815  and  _817
REMARK  332  A    between atoms: _817  and  _818
REMARK  333  A    between atoms: _817  and  _820
REMARK  334  A    between atoms: _820  and  _821
REMARK  335  A    between atoms: _826  and  _827
REMARK  336  A    between atoms: _829  and  _831
REMARK  337  A    between atoms: _831  and  _832
REMARK  338  A    between atoms: _831  and  _834
REMARK  339  A    between atoms: _834  and  _835
REMARK  340  A    between atoms: _840  and  _841
REMARK  341  A    between atoms: _843  and  _845
REMARK  342  A    between atoms: _845  and  _846
REMARK  343  A    between atoms: _845  and  _848
REMARK  344  A    between atoms: _848  and  _849
REMARK  345  A    between atoms: _853  and  ZN_1037
REMARK  346  A    between atoms: _854  and  _856
REMARK  347  A    between atoms: _856  and  _857
REMARK  348  A    between atoms: _856  and  _859
REMARK  349  A    between atoms: _859  and  _860
REMARK  350  A    between atoms: _860  and  _861
REMARK  351  A    between atoms: _864  and  _866
REMARK  352  A    between atoms: _866  and  _867
REMARK  353  A    between atoms: _866  and  _869
REMARK  354  A    between atoms: _869  and  _870
REMARK  355  A    between atoms: _870  and  _871
REMARK  356  A    between atoms: _871  and  _872
REMARK  357  A    between atoms: _881  and  _883
REMARK  358  A    between atoms: _883  and  _884
REMARK  359  A    between atoms: _883  and  _886
REMARK  360  A    between atoms: _886  and  _887
REMARK  361  A    between atoms: _887  and  _888
REMARK  362  A    between atoms: _888  and  _889
REMARK  363  A    between atoms: _889  and  _890
REMARK  364  A    between atoms: _894  and  _896
REMARK  365  A    between atoms: _896  and  _897
REMARK  366  A    between atoms: _896  and  _899
REMARK  367  A    between atoms: _899  and  _900
REMARK  368  A    between atoms: _905  and  _906
REMARK  369  A    between atoms: _908  and  _910
REMARK  370  A    between atoms: _910  and  _911
REMARK  371  A    between atoms: _910  and  _913
REMARK  372  A    between atoms: _913  and  _914
REMARK  373  A    between atoms: _914  and  _915
REMARK  374  A    between atoms: _915  and  _916
REMARK  375  A    between atoms: _916  and  _917
REMARK  376  A    between atoms: _921  and  _923
REMARK  377  A    between atoms: _923  and  _924
REMARK  378  A    between atoms: _923  and  _926
REMARK  379  A    between atoms: _926  and  _927
REMARK  380  A    between atoms: _932  and  _933
REMARK  381  A    between atoms: _935  and  _937
REMARK  382  A    between atoms: _937  and  _938
REMARK  383  A    between atoms: _937  and  _940
REMARK  384  A    between atoms: _940  and  _941
REMARK  385  A    between atoms: _946  and  _947
REMARK  386  A    between atoms: _949  and  _951
REMARK  387  A    between atoms: _951  and  _952
REMARK  388  A    between atoms: _956  and  _957
REMARK  389  A    between atoms: _962  and  _964
REMARK  390  A    between atoms: _964  and  _965
REMARK  391  A    between atoms: _964  and  _967
REMARK  392  A    between atoms: _967  and  _968
REMARK  393  A    between atoms: _970  and  _972
REMARK  394  A    between atoms: _972  and  _973
REMARK  395  A    between atoms: _972  and  _975
REMARK  396  A    between atoms: _975  and  _976
REMARK  397  A    between atoms: _981  and  _983
REMARK  398  A    between atoms: _983  and  _984
REMARK  399  A    between atoms: _983  and  _986
REMARK  400  A    between atoms: _986  and  _987
REMARK  401  A    between atoms: _987  and  _988
REMARK  402  A    between atoms: _988  and  _989
REMARK  403  A    between atoms: _989  and  _990
REMARK  404  A    between atoms: _994  and  _996
REMARK  405  A    between atoms: _996  and  _997
REMARK  406  A    between atoms: _996  and  _999
REMARK  407  A    between atoms: _999  and  _1000
REMARK  408  A    between atoms: _1005  and  _1006
REMARK  409  A    between atoms: _1008  and  _1010
REMARK  410  A    between atoms: _1010  and  _1011
REMARK  411  A    between atoms: _1014  and  _1016
REMARK  412  A    between atoms: _1016  and  _1017
REMARK  413  A    between atoms: _1019  and  _1021
REMARK  414  A    between atoms: _1021  and  _1022
REMARK  415  A    between atoms: _1021  and  _1024
REMARK  416  A    between atoms: _1024  and  _1025
REMARK  417  A    between atoms: _1025  and  _1026
REMARK  418  A    between atoms: _1029  and  _1031
REMARK  419  A    between atoms: _1031  and  _1032
REMARK  420  A    between atoms: _1031  and  _1034
REMARK  421  A    between atoms: _1034  and  _1035
REMARK                            x       y       z     vdW  Elec       q    Type
REMARK                         _______ _______ _______ _____ _____    ______ ____
ROOT
ATOM      1  CA  ARG A   4      27.801  50.418  53.576  0.00  0.00    +0.149 C 
ENDROOT
BRANCH   1   4
ATOM      2  C   LEU A   3      29.506  49.547  55.129  0.00  0.00    +0.241 C 
ATOM      3  O   LEU A   3      30.373  50.347  54.772  0.00  0.00    -0.273 OA
ATOM      4  N   ARG A   4      28.273  49.495  54.600  0.00  0.00    -0.297 N 
ATOM      5  H   ARG A   4      27.622  48.758  54.938  0.00  0.00    +0.150 HD
BRANCH   2   6
ATOM      6  CA  LEU A   3      29.761  48.626  56.317  0.00  0.00    +0.149 C 
BRANCH   6   8
ATOM      7  C   THR A   2      31.668  47.324  55.566  0.00  0.00    +0.243 C 
ATOM      8  N   LEU A   3      31.184  48.259  56.367  0.00  0.00    -0.297 N 
ATOM      9  H   LEU A   3      31.816  48.739  57.039  0.00  0.00    +0.150 HD
ATOM     10  O   THR A   2      30.983  46.736  54.685  0.00  0.00    -0.273 OA
BRANCH   7  11
ATOM     11  CA  THR A   2      33.170  47.032  55.753  0.00  0.00    +0.176 C 
BRANCH  11  14
ATOM     12  C   TYR A   1      34.698  45.318  55.046  0.00  0.00    +0.239 C 
ATOM     13  O   TYR A   1      35.378  45.533  56.065  0.00  0.00    -0.274 OA
ATOM     14  N   THR A   2      33.593  46.021  54.771  0.00  0.00    -0.295 N 
ATOM     15  H   THR A   2      33.054  45.859  53.897  0.00  0.00    +0.150 HD
BRANCH  12  16
ATOM     16  CA  TYR A   1      35.131  44.270  54.044  0.00  0.00    +0.149 C 
BRANCH  16  17
ATOM     17  N   TYR A   1      34.084  43.276  53.753  0.00  0.00    -0.238 NA
ATOM     18  H   TYR A   1      33.353  43.497  53.047  0.00  0.00    +0.142 HD
ENDBRANCH  16  17
BRANCH  16  19
ATOM     19  CB  TYR A   1      35.601  44.947  52.767  0.00  0.00    +0.053 C 
BRANCH  19  20
ATOM     20  CG  TYR A   1      36.747  45.925  52.968  0.00  0.00    -0.020 A 
ATOM     21  CD2 TYR A   1      38.008  45.487  53.386  0.00  0.00    -0.001 A 
ATOM     22  CE2 TYR A   1      39.049  46.387  53.544  0.00  0.00    +0.036 A 
ATOM     23  CZ  TYR A   1      38.837  47.722  53.264  0.00  0.00    +0.134 A 
ATOM     24  CE1 TYR A   1      37.613  48.187  52.851  0.00  0.00    +0.036 A 
ATOM     25  CD1 TYR A   1      36.563  47.275  52.701  0.00  0.00    -0.001 A 
BRANCH  23  26
ATOM     26  OH  TYR A   1      39.898  48.586  53.437  0.00  0.00    -0.506 OA
ATOM     27  HH  TYR A   1      40.098  49.038  52.579  0.00  0.00    +0.292 HD
ENDBRANCH  23  26
ENDBRANCH  19  20
ENDBRANCH  16  19
ENDBRANCH  12  16
ENDBRANCH  11  14
BRANCH  11  28
ATOM     28  CB  THR A   2      33.988  48.337  55.626  0.00  0.00    +0.137 C 
ATOM     29  CG2 THR A   2      33.675  49.072  54.332  0.00  0.00    +0.034 C 
BRANCH  28  30
ATOM     30  OG1 THR A   2      33.783  49.181  56.786  0.00  0.00    -0.382 OA
ATOM     31  HG1 THR A   2      34.073  48.698  57.600  0.00  0.00    +0.210 HD
ENDBRANCH  28  30
ENDBRANCH  11  28
ENDBRANCH   7  11
ENDBRANCH   6   8
BRANCH   6  32
ATOM     32  CB  LEU A   3      29.387  49.346  57.622  0.00  0.00    +0.029 C 
BRANCH  32  33
ATOM     33  CG  LEU A   3      27.893  49.579  57.860  0.00  0.00    +0.002 C 
ATOM     34  CD2 LEU A   3      27.754  50.510  59.043  0.00  0.00    +0.000 C 
ATOM     35  CD1 LEU A   3      27.213  48.238  58.155  0.00  0.00    +0.000 C 
ENDBRANCH  32  33
ENDBRANCH   6  32
ENDBRANCH   2   6
ENDBRANCH   1   4
BRANCH   1  36
ATOM     36  C   ARG A   4      26.481  50.949  54.092  0.00  0.00    +0.241 C 
ATOM     37  O   ARG A   4      25.633  50.135  54.462  0.00  0.00    -0.273 OA
ATOM     38  N   VAL A   5      26.305  52.274  54.148  0.00  0.00    -0.297 N 
ATOM     39  H   VAL A   5      27.092  52.915  53.923  0.00  0.00    +0.150 HD
BRANCH  38  40
ATOM     40  CA  VAL A   5      24.992  52.821  54.529  0.00  0.00    +0.149 C 
BRANCH  40  41
ATOM     41  C   VAL A   5      24.594  53.849  53.482  0.00  0.00    +0.241 C 
ATOM     42  O   VAL A   5      25.434  54.672  53.076  0.00  0.00    -0.273 OA
ATOM     43  N   ASP A   6      23.327  53.801  53.033  0.00  0.00    -0.297 N 
ATOM     44  H   ASP A   6      22.725  53.003  53.319  0.00  0.00    +0.150 HD
BRANCH  43  45
ATOM     45  CA  ASP A   6      22.760  54.838  52.151  0.00  0.00    +0.160 C 
BRANCH  45  46
ATOM     46  C   ASP A   6      21.501  55.280  52.884  0.00  0.00    +0.241 C 
ATOM     47  O   ASP A   6      20.670  54.450  53.234  0.00  0.00    -0.273 OA
ATOM     48  N   CYS A   7      21.315  56.586  53.054  0.00  0.00    -0.297 N 
ATOM     49  H   CYS A   7      22.014  57.272  52.702  0.00  0.00    +0.150 HD
BRANCH  48  50
ATOM     50  CA  CYS A   7      20.123  57.033  53.737  0.00  0.00    +0.149 C 
BRANCH  50  51
ATOM     51  C   CYS A   7      19.918  58.494  53.602  0.00  0.00    +0.228 C 
ATOM     52  O   CYS A   7      20.769  59.207  53.162  0.00  0.00    -0.286 OA
ENDBRANCH  50  51
BRANCH  50  53
ATOM     53  CB  CYS A   7      20.211  56.718  55.245  0.00  0.00    +0.096 C 
ATOM     54  SG  CYS A   7      21.534  57.569  56.201  0.00  0.00    -0.080 S 
ENDBRANCH  50  53
ENDBRANCH  48  50
ENDBRANCH  45  46
BRANCH  45  55
ATOM     55  CB  ASP A   6      22.315  54.285  50.760  0.00  0.00    +0.143 C 
BRANCH  55  56
ATOM     56  CG  ASP A   6      23.352  53.473  49.996  0.00  0.00    +0.367 C 
ATOM     57  OD2 ASP A   6      24.534  53.368  50.357  0.00  0.00    -0.246 OA
ATOM     58  OD1 ASP A   6      22.939  52.911  48.936  0.00  0.00    -0.246 OA
ENDBRANCH  55  56
ENDBRANCH  45  55
ENDBRANCH  43  45
ENDBRANCH  40  41
BRANCH  40  59
ATOM     59  CB  VAL A   5      25.088  53.530  55.922  0.00  0.00    +0.027 C 
ATOM     60  CG2 VAL A   5      25.532  52.539  56.981  0.00  0.00    +0.002 C 
ATOM     61  CG1 VAL A   5      23.760  54.152  56.298  0.00  0.00    +0.002 C 
ENDBRANCH  40  59
ENDBRANCH  38  40
ENDBRANCH   1  36
BRANCH   1  62
ATOM     62  CB  ARG A   4      27.588  49.673  52.232  0.00  0.00    +0.033 C 
BRANCH  62  63
ATOM     63  CG  ARG A   4      26.933  50.574  51.190  0.00  0.00    +0.045 C 
BRANCH  63  64
ATOM     64  CD  ARG A   4      26.575  49.789  49.962  0.00  0.00    +0.174 C 
BRANCH  64  65
ATOM     65  NE  ARG A   4      25.409  50.399  49.306  0.00  0.00    -0.265 N 
ATOM     66  HE  ARG A   4      25.055  51.309  49.664  0.00  0.00    +0.259 HD
ATOM     67  CZ  ARG A   4      24.789  49.836  48.274  0.00  0.00    +0.342 C 
ATOM     68  NH2 ARG A   4      25.248  48.662  47.800  0.00  0.00    -0.292 N 
ATOM     69 HH21 ARG A   4      26.075  48.211  48.241  0.00  0.00    +0.255 HD
ATOM     70 HH22 ARG A   4      24.776  48.207  46.993  0.00  0.00    +0.255 HD
ATOM     71  NH1 ARG A   4      23.738  50.446  47.720  0.00  0.00    -0.292 N 
ATOM     72 HH11 ARG A   4      23.408  51.358  48.096  0.00  0.00    +0.255 HD
ATOM     73 HH12 ARG A   4      23.250  50.009  46.912  0.00  0.00    +0.255 HD
ENDBRANCH  64  65
ENDBRANCH  63  64
ENDBRANCH  62  63
ENDBRANCH   1  62
TORSDOF 29
REMARK  Name = ../refined-set-2016/2xef/2xef_pocket.pdb
REMARK  421 active torsions:
REMARK  status: ('A' for Active; 'I' for Inactive)
REMARK    1  A    between atoms: _1  and  _3
REMARK    2  A    between atoms: _3  and  _4
REMARK    3  A    between atoms: _7  and  _9
REMARK    4  A    between atoms: _9  and  _10
REMARK    5  A    between atoms: _9  and  _12
REMARK    6  A    between atoms: _12  and  _13
REMARK    7  A    between atoms: _19  and  _21
REMARK    8  A    between atoms: _21  and  _22
REMARK    9  A    between atoms: _21  and  _24
REMARK   10  A    between atoms: _24  and  _25
REMARK   11  A    between atoms: _30  and  _31
REMARK   12  A    between atoms: _33  and  _35
REMARK   13  A    between atoms: _35  and  _36
REMARK   14  A    between atoms: _38  and  _40
REMARK   15  A    between atoms: _40  and  _41
REMARK   16  A    between atoms: _40  and  _43
REMARK   17  A    between atoms: _43  and  _44
REMARK   18  A    between atoms: _44  and  _45
REMARK   19  A    between atoms: _45  and  _46
REMARK   20  A    between atoms: _46  and  _47
REMARK   21  A    between atoms: _51  and  _53
REMARK   22  A    between atoms: _53  and  _54
REMARK   23  A    between atoms: _53  and  _56
REMARK   24  A    between atoms: _59  and  _61
REMARK   25  A    between atoms: _61  and  _62
REMARK   26  A    between atoms: _61  and  _64
REMARK   27  A    between atoms: _64  and  _65
REMARK   28  A    between atoms: _71  and  _73
REMARK   29  A    between atoms: _73  and  _74
REMARK   30  A    between atoms: _73  and  _76
REMARK   31  A    between atoms: _76  and  _77
REMARK   32  A    between atoms: _77  and  _78
REMARK   33  A    between atoms: _78  and  _79
REMARK   34  A    between atoms: _88  and  _90
REMARK   35  A    between atoms: _90  and  _91
REMARK   36  A    between atoms: _93  and  _95
REMARK   37  A    between atoms: _95  and  _96
REMARK   38  A    between atoms: _95  and  _98
REMARK   39  A    between atoms: _98  and  _99
REMARK   40  A    between atoms: _99  and  _100
REMARK   41  A    between atoms: _100  and  _101
REMARK   42  A    between atoms: _101  and  _102
REMARK   43  A    between atoms: _106  and  _108
REMARK   44  A    between atoms: _108  and  _109
REMARK   45  A    between atoms: _108  and  _111
REMARK   46  A    between atoms: _111  and  _112
REMARK   47  A    between atoms: _117  and  _118
REMARK   48  A    between atoms: _120  and  _122
REMARK   49  A    between atoms: _122  and  _123
REMARK   50  A    between atoms: _122  and  _125
REMARK   51  A    between atoms: _125  and  _126
REMARK   52  A    between atoms: _126  and  _127
REMARK   53  A    between atoms: _132  and  _134
REMARK   54  A    between atoms: _134  and  _135
REMARK   55  A    between atoms: _134  and  _137
REMARK   56  A    between atoms: _137  and  _138
REMARK   57  A    between atoms: _138  and  _139
REMARK   58  A    between atoms: _139  and  _140
REMARK   59  A    between atoms: _149  and  _151
REMARK   60  A    between atoms: _151  and  _152
REMARK   61  A    between atoms: _154  and  _156
REMARK   62  A    between atoms: _156  and  _157
REMARK   63  A    between atoms: _156  and  _159
REMARK   64  A    between atoms: _159  and  _160
REMARK   65  A    between atoms: _165  and  _167
REMARK   66  A    between atoms: _167  and  _168
REMARK   67  A    between atoms: _167  and  _170
REMARK   68  A    between atoms: _170  and  _171
REMARK   69  A    between atoms: _174  and  _176
REMARK   70  A    between atoms: _176  and  _177
REMARK   71  A    between atoms: _176  and  _179
REMARK   72  A    between atoms: _179  and  _180
REMARK   73  A    between atoms: _183  and  _185
REMARK   74  A    between atoms: _185  and  _186
REMARK   75  A    between atoms: _185  and  _188
REMARK   76  A    between atoms: _188  and  _189
REMARK   77  A    between atoms: _194  and  _196
REMARK   78  A    between atoms: _196  and  _197
REMARK   79  A    between atoms: _196  and  _199
REMARK   80  A    between atoms: _199  and  _200
REMARK   81  A    between atoms: _203  and  _205
REMARK   82  A    between atoms: _205  and  _206
REMARK   83  A    between atoms: _205  and  _208
REMARK   84  A    between atoms: _208  and  _209
REMARK   85  A    between atoms: _214  and  _216
REMARK   86  A    between atoms: _216  and  _217
REMARK   87  A    between atoms: _219  and  _221
REMARK   88  A    between atoms: _221  and  _222
REMARK   89  A    between atoms: _224  and  _226
REMARK   90  A    between atoms: _226  and  _227
REMARK   91  A    between atoms: _226  and  _229
REMARK   92  A    between atoms: _229  and  _230
REMARK   93  A    between atoms: _234  and  ZN_1038
REMARK   94  A    between atoms: _235  and  _237
REMARK   95  A    between atoms: _237  and  _238
REMARK   96  A    between atoms: _237  and  _240
REMARK   97  A    between atoms: _240  and  _241
REMARK   98  A    between atoms: _244  and  _246
REMARK   99  A    between atoms: _246  and  _247
REMARK  100  A    between atoms: _246  and  _249
REMARK  101  A    between atoms: _249  and  _250
REMARK  102  A    between atoms: _260  and  _262
REMARK  103  A    between atoms: _262  and  _263
REMARK  104  A    between atoms: _262  and  _265
REMARK  105  A    between atoms: _265  and  _266
REMARK  106  A    between atoms: _269  and  _271
REMARK  107  A    between atoms: _271  and  _272
REMARK  108  A    between atoms: _271  and  _274
REMARK  109  A    between atoms: _274  and  _275
REMARK  110  A    between atoms: _279  and  _280
REMARK  111  A    between atoms: _285  and  _287
REMARK  112  A    between atoms: _287  and  _288
REMARK  113  A    between atoms: _291  and  _293
REMARK  114  A    between atoms: _293  and  _294
REMARK  115  A    between atoms: _293  and  _296
REMARK  116  A    between atoms: _296  and  _297
REMARK  117  A    between atoms: _297  and  _298
REMARK  118  A    between atoms: _301  and  _303
REMARK  119  A    between atoms: _303  and  _304
REMARK  120  A    between atoms: _303  and  _306
REMARK  121  A    between atoms: _306  and  _307
REMARK  122  A    between atoms: _307  and  _308
REMARK  123  A    between atoms: _308  and  _310
REMARK  124  A    between atoms: _310  and  ZN_1037
REMARK  125  A    between atoms: _311  and  _313
REMARK  126  A    between atoms: _313  and  _314
REMARK  127  A    between atoms: _313  and  _316
REMARK  128  A    between atoms: _316  and  _317
REMARK  129  A    between atoms: _323  and  _325
REMARK  130  A    between atoms: _325  and  _326
REMARK  131  A    between atoms: _328  and  _330
REMARK  132  A    between atoms: _330  and  _331
REMARK  133  A    between atoms: _330  and  _333
REMARK  134  A    between atoms: _333  and  _334
REMARK  135  A    between atoms: _337  and  _339
REMARK  136  A    between atoms: _339  and  _340
REMARK  137  A    between atoms: _339  and  _342
REMARK  138  A    between atoms: _342  and  _343
REMARK  139  A    between atoms: _346  and  _348
REMARK  140  A    between atoms: _348  and  _349
REMARK  141  A    between atoms: _348  and  _351
REMARK  142  A    between atoms: _351  and  _352
REMARK  143  A    between atoms: _357  and  _359
REMARK  144  A    between atoms: _359  and  _360
REMARK  145  A    between atoms: _359  and  _362
REMARK  146  A    between atoms: _362  and  _363
REMARK  147  A    between atoms: _363  and  _365
REMARK  148  A    between atoms: _365  and  ZN_1038
REMARK  149  A    between atoms: _366  and  _368
REMARK  150  A    between atoms: _368  and  _369
REMARK  151  A    between atoms: _368  and  _371
REMARK  152  A    between atoms: _371  and  _372
REMARK  153  A    between atoms: _374  and  _376
REMARK  154  A    between atoms: _376  and  _377
REMARK  155  A    between atoms: _376  and  _379
REMARK  156  A    between atoms: _379  and  _380
REMARK  157  A    between atoms: _382  and  _384
REMARK  158  A    between atoms: _384  and  _385
REMARK  159  A    between atoms: _384  and  _387
REMARK  160  A    between atoms: _387  and  _388
REMARK  161  A    between atoms: _391  and  _393
REMARK  162  A    between atoms: _393  and  _394
REMARK  163  A    between atoms: _393  and  _396
REMARK  164  A    between atoms: _396  and  _397
REMARK  165  A    between atoms: _397  and  _398
REMARK  166  A    between atoms: _401  and  _403
REMARK  167  A    between atoms: _403  and  _404
REMARK  168  A    between atoms: _403  and  _406
REMARK  169  A    between atoms: _406  and  _407
REMARK  170  A    between atoms: _412  and  _413
REMARK  171  A    between atoms: _415  and  _417
REMARK  172  A    between atoms: _417  and  _418
REMARK  173  A    between atoms: _417  and  _420
REMARK  174  A    between atoms: _420  and  _421
REMARK  175  A    between atoms: _424  and  _426
REMARK  176  A    between atoms: _426  and  _427
REMARK  177  A    between atoms: _426  and  _429
REMARK  178  A    between atoms: _429  and  _430
REMARK  179  A    between atoms: _433  and  _435
REMARK  180  A    between atoms: _435  and  _436
REMARK  181  A    between atoms: _435  and  _438
REMARK  182  A    between atoms: _438  and  _439
REMARK  183  A    between atoms: _439  and  _440
REMARK  184  A    between atoms: _440  and  _441
REMARK  185  A    between atoms: _450  and  _452
REMARK  186  A    between atoms: _452  and  _453
REMARK  187  A    between atoms: _452  and  _455
REMARK  188  A    between atoms: _458  and  _460
REMARK  189  A    between atoms: _460  and  _461
REMARK  190  A    between atoms: _460  and  _463
REMARK  191  A    between atoms: _463  and  _464
REMARK  192  A    between atoms: _467  and  _469
REMARK  193  A    between atoms: _469  and  _470
REMARK  194  A    between atoms: _469  and  _472
REMARK  195  A    between atoms: _474  and  _476
REMARK  196  A    between atoms: _476  and  _477
REMARK  197  A    between atoms: _476  and  _479
REMARK  198  A    between atoms: _479  and  _480
REMARK  199  A    between atoms: _490  and  _492
REMARK  200  A    between atoms: _492  and  _493
REMARK  201  A    between atoms: _492  and  _495
REMARK  202  A    between atoms: _495  and  _496
REMARK  203  A    between atoms: _496  and  _497
REMARK  204  A    between atoms: _497  and  _498
REMARK  205  A    between atoms: _498  and  _499
REMARK  206  A    between atoms: _503  and  _505
REMARK  207  A    between atoms: _505  and  _506
REMARK  208  A    between atoms: _505  and  _508
REMARK  209  A    between atoms: _508  and  _509
REMARK  210  A    between atoms: _512  and  _513
REMARK  211  A    between atoms: _519  and  _520
REMARK  212  A    between atoms: _525  and  _527
REMARK  213  A    between atoms: _527  and  _528
REMARK  214  A    between atoms: _527  and  _530
REMARK  215  A    between atoms: _530  and  _531
REMARK  216  A    between atoms: _531  and  _532
REMARK  217  A    between atoms: _535  and  _537
REMARK  218  A    between atoms: _537  and  _538
REMARK  219  A    between atoms: _537  and  _540
REMARK  220  A    between atoms: _540  and  _541
REMARK  221  A    between atoms: _541  and  _542
REMARK  222  A    between atoms: _542  and  _543
REMARK  223  A    between atoms: _552  and  _554
REMARK  224  A    between atoms: _554  and  _555
REMARK  225  A    between atoms: _554  and  _557
REMARK  226  A    between atoms: _557  and  _558
REMARK  227  A    between atoms: _561  and  _563
REMARK  228  A    between atoms: _563  and  _564
REMARK  229  A    between atoms: _563  and  _566
REMARK  230  A    between atoms: _566  and  _567
REMARK  231  A    between atoms: _569  and  _571
REMARK  232  A    between atoms: _571  and  _572
REMARK  233  A    between atoms: _571  and  _574
REMARK  234  A    between atoms: _574  and  _575
REMARK  235  A    between atoms: _575  and  _576
REMARK  236  A    between atoms: _576  and  _577
REMARK  237  A    between atoms: _577  and  _578
REMARK  238  A    between atoms: _582  and  _584
REMARK  239  A    between atoms: _584  and  _585
REMARK  240  A    between atoms: _584  and  _587
REMARK  241  A    between atoms: _587  and  _588
REMARK  242  A    between atoms: _591  and  _593
REMARK  243  A    between atoms: _593  and  _594
REMARK  244  A    between atoms: _596  and  _598
REMARK  245  A    between atoms: _598  and  _599
REMARK  246  A    between atoms: _598  and  _601
REMARK  247  A    between atoms: _601  and  _602
REMARK  248  A    between atoms: _604  and  _606
REMARK  249  A    between atoms: _606  and  _607
REMARK  250  A    between atoms: _609  and  _611
REMARK  251  A    between atoms: _611  and  _612
REMARK  252  A    between atoms: _611  and  _614
REMARK  253  A    between atoms: _614  and  _615
REMARK  254  A    between atoms: _620  and  _622
REMARK  255  A    between atoms: _622  and  _623
REMARK  256  A    between atoms: _622  and  _625
REMARK  257  A    between atoms: _625  and  _626
REMARK  258  A    between atoms: _629  and  _631
REMARK  259  A    between atoms: _631  and  _632
REMARK  260  A    between atoms: _631  and  _634
REMARK  261  A    between atoms: _634  and  _635
REMARK  262  A    between atoms: _641  and  _643
REMARK  263  A    between atoms: _643  and  _644
REMARK  264  A    between atoms: _643  and  _646
REMARK  265  A    between atoms: _646  and  _647
REMARK  266  A    between atoms: _647  and  _648
REMARK  267  A    between atoms: _651  and  _653
REMARK  268  A    between atoms: _653  and  _654
REMARK  269  A    between atoms: _653  and  _656
REMARK  270  A    between atoms: _656  and  _657
REMARK  271  A    between atoms: _657  and  _658
REMARK  272  A    between atoms: _663  and  _665
REMARK  273  A    between atoms: _665  and  _666
REMARK  274  A    between atoms: _665  and  _668
REMARK  275  A    between atoms: _668  and  _669
REMARK  276  A    between atoms: _669  and  _670
REMARK  277  A    between atoms: _670  and  _671
REMARK  278  A    between atoms: _680  and  _682
REMARK  279  A    between atoms: _682  and  _683
REMARK  280  A    between atoms: _682  and  _685
REMARK  281  A    between atoms: _685  and  _686
REMARK  282  A    between atoms: _686  and  _687
REMARK  283  A    between atoms: _687  and  _688
REMARK  284  A    between atoms: _697  and  _699
REMARK  285  A    between atoms: _699  and  _700
REMARK  286  A    between atoms: _699  and  _702
REMARK  287  A    between atoms: _702  and  _703
REMARK  288  A    between atoms: _708  and  _709
REMARK  289  A    between atoms: _711  and  _713
REMARK  290  A    between atoms: _713  and  _714
REMARK  291  A    between atoms: _713  and  _716
REMARK  292  A    between atoms: _716  and  _717
REMARK  293  A    between atoms: _720  and  _722
REMARK  294  A    between atoms: _722  and  _723
REMARK  295  A    between atoms: _722  and  _725
REMARK  296  A    between atoms: _725  and  _726
REMARK  297  A    between atoms: _726  and  _727
REMARK  298  A    between atoms: _727  and  _728
REMARK  299  A    between atoms: _728  and  _729
REMARK  300  A    between atoms: _733  and  _735
REMARK  301  A    between atoms: _735  and  _736
REMARK  302  A    between atoms: _735  and  _738
REMARK  303  A    between atoms: _738  and  _739
REMARK  304  A    between atoms: _744  and  _746
REMARK  305  A    between atoms: _746  and  _747
REMARK  306  A    between atoms: _746  and  _749
REMARK  307  A    between atoms: _749  and  _750
REMARK  308  A    between atoms: _760  and  _762
REMARK  309  A    between atoms: _762  and  _763
REMARK  310  A    between atoms: _762  and  _765
REMARK  311  A    between atoms: _765  and  _766
REMARK  312  A    between atoms: _766  and  _767
REMARK  313  A    between atoms: _770  and  _772
REMARK  314  A    between atoms: _772  and  _773
REMARK  315  A    between atoms: _772  and  _775
REMARK  316  A    between atoms: _775  and  _776
REMARK  317  A    between atoms: _779  and  _781
REMARK  318  A    between atoms: _781  and  _782
REMARK  319  A    between atoms: _781  and  _784
REMARK  320  A    between atoms: _784  and  _785
REMARK  321  A    between atoms: _790  and  _792
REMARK  322  A    between atoms: _792  and  _793
REMARK  323  A    between atoms: _792  and  _795
REMARK  324  A    between atoms: _795  and  _796
REMARK  325  A    between atoms: _802  and  _804
REMARK  326  A    between atoms: _804  and  _805
REMARK  327  A    between atoms: _804  and  _807
REMARK  328  A    between atoms: _807  and  _808
REMARK  329  A    between atoms: _810  and  _812
REMARK  330  A    between atoms: _812  and  _813
REMARK  331  A    between atoms: _815  and  _817
REMARK  332  A    between atoms: _817  and  _818
REMARK  333  A    between atoms: _817  and  _820
REMARK  334  A    between atoms: _820  and  _821
REMARK  335  A    between atoms: _826  and  _827
REMARK  336  A    between atoms: _829  and  _831
REMARK  337  A    between atoms: _831  and  _832
REMARK  338  A    between atoms: _831  and  _834
REMARK  339  A    between atoms: _834  and  _835
REMARK  340  A    between atoms: _840  and  _841
REMARK  341  A    between atoms: _843  and  _845
REMARK  342  A    between atoms: _845  and  _846
REMARK  343  A    between atoms: _845  and  _848
REMARK  344  A    between atoms: _848  and  _849
REMARK  345  A    between atoms: _853  and  ZN_1037
REMARK  346  A    between atoms: _854  and  _856
REMARK  347  A    between atoms: _856  and  _857
REMARK  348  A    between atoms: _856  and  _859
REMARK  349  A    between atoms: _859  and  _860
REMARK  350  A    between atoms: _860  and  _861
REMARK  351  A    between atoms: _864  and  _866
REMARK  352  A    between atoms: _866  and  _867
REMARK  353  A    between atoms: _866  and  _869
REMARK  354  A    between atoms: _869  and  _870
REMARK  355  A    between atoms: _870  and  _871
REMARK  356  A    between atoms: _871  and  _872
REMARK  357  A    between atoms: _881  and  _883
REMARK  358  A    between atoms: _883  and  _884
REMARK  359  A    between atoms: _883  and  _886
REMARK  360  A    between atoms: _886  and  _887
REMARK  361  A    between atoms: _887  and  _888
REMARK  362  A    between atoms: _888  and  _889
REMARK  363  A    between atoms: _889  and  _890
REMARK  364  A    between atoms: _894  and  _896
REMARK  365  A    between atoms: _896  and  _897
REMARK  366  A    between atoms: _896  and  _899
REMARK  367  A    between atoms: _899  and  _900
REMARK  368  A    between atoms: _905  and  _906
REMARK  369  A    between atoms: _908  and  _910
REMARK  370  A    between atoms: _910  and  _911
REMARK  371  A    between atoms: _910  and  _913
REMARK  372  A    between atoms: _913  and  _914
REMARK  373  A    between atoms: _914  and  _915
REMARK  374  A    between atoms: _915  and  _916
REMARK  375  A    between atoms: _916  and  _917
REMARK  376  A    between atoms: _921  and  _923
REMARK  377  A    between atoms: _923  and  _924
REMARK  378  A    between atoms: _923  and  _926
REMARK  379  A    between atoms: _926  and  _927
REMARK  380  A    between atoms: _932  and  _933
REMARK  381  A    between atoms: _935  and  _937
REMARK  382  A    between atoms: _937  and  _938
REMARK  383  A    between atoms: _937  and  _940
REMARK  384  A    between atoms: _940  and  _941
REMARK  385  A    between atoms: _946  and  _947
REMARK  386  A    between atoms: _949  and  _951
REMARK  387  A    between atoms: _951  and  _952
REMARK  388  A    between atoms: _956  and  _957
REMARK  389  A    between atoms: _962  and  _964
REMARK  390  A    between atoms: _964  and  _965
REMARK  391  A    between atoms: _964  and  _967
REMARK  392  A    between atoms: _967  and  _968
REMARK  393  A    between atoms: _970  and  _972
REMARK  394  A    between atoms: _972  and  _973
REMARK  395  A    between atoms: _972  and  _975
REMARK  396  A    between atoms: _975  and  _976
REMARK  397  A    between atoms: _981  and  _983
REMARK  398  A    between atoms: _983  and  _984
REMARK  399  A    between atoms: _983  and  _986
REMARK  400  A    between atoms: _986  and  _987
REMARK  401  A    between atoms: _987  and  _988
REMARK  402  A    between atoms: _988  and  _989
REMARK  403  A    between atoms: _989  and  _990
REMARK  404  A    between atoms: _994  and  _996
REMARK  405  A    between atoms: _996  and  _997
REMARK  406  A    between atoms: _996  and  _999
REMARK  407  A    between atoms: _999  and  _1000
REMARK  408  A    between atoms: _1005  and  _1006
REMARK  409  A    between atoms: _1008  and  _1010
REMARK  410  A    between atoms: _1010  and  _1011
REMARK  411  A    between atoms: _1014  and  _1016
REMARK  412  A    between atoms: _1016  and  _1017
REMARK  413  A    between atoms: _1019  and  _1021
REMARK  414  A    between atoms: _1021  and  _1022
REMARK  415  A    between atoms: _1021  and  _1024
REMARK  416  A    between atoms: _1024  and  _1025
REMARK  417  A    between atoms: _1025  and  _1026
REMARK  418  A    between atoms: _1029  and  _1031
REMARK  419  A    between atoms: _1031  and  _1032
REMARK  420  A    between atoms: _1031  and  _1034
REMARK  421  A    between atoms: _1034  and  _1035
REMARK                            x       y       z     vdW  Elec       q    Type
REMARK                         _______ _______ _______ _____ _____    ______ ____
ROOT
ATOM      1  CG  TRP A   1      31.651  52.423  58.412  0.00  0.00    -0.002 A 
ATOM      2  CD2 TRP A   1      30.468  53.190  58.662  0.00  0.00    +0.013 A 
ATOM      3  CE3 TRP A   1      29.826  53.625  59.838  0.00  0.00    +0.001 A 
ATOM      4  CZ3 TRP A   1      28.660  54.409  59.725  0.00  0.00    +0.000 A 
ATOM      5  CH2 TRP A   1      28.137  54.760  58.445  0.00  0.00    +0.001 A 
ATOM      6  CZ2 TRP A   1      28.756  54.355  57.287  0.00  0.00    +0.017 A 
ATOM      7  CE2 TRP A   1      29.929  53.573  57.404  0.00  0.00    +0.056 A 
ATOM      8  NE1 TRP A   1      30.720  53.030  56.426  0.00  0.00    -0.352 N 
ATOM      9  HE1 TRP A   1      30.565  53.123  55.402  0.00  0.00    +0.166 HD
ATOM     10  CD1 TRP A   1      31.766  52.333  57.026  0.00  0.00    +0.068 A 
ENDROOT
BRANCH   1  11
ATOM     11  CB  TRP A   1      32.527  51.802  59.452  0.00  0.00    +0.053 C 
BRANCH  11  12
ATOM     12  CA  TRP A   1      34.002  51.654  59.106  0.00  0.00    +0.137 C 
BRANCH  12  13
ATOM     13  N   TRP A   1      34.656  51.108  60.269  0.00  0.00    -0.239 NA
ATOM     14  H   TRP A   1      34.116  50.989  61.150  0.00  0.00    +0.142 HD
ENDBRANCH  12  13
BRANCH  12  15
ATOM     15  C   TRP A   1      34.646  52.959  58.630  0.00  0.00    +0.224 C 
ATOM     16  O   TRP A   1      34.900  53.136  57.440  0.00  0.00    -0.287 OA
ENDBRANCH  12  15
ENDBRANCH  11  12
ENDBRANCH   1  11
TORSDOF 4
REMARK  Name = ../refined-set-2016/2xef/2xef_pocket.pdb
REMARK  421 active torsions:
REMARK  status: ('A' for Active; 'I' for Inactive)
REMARK    1  A    between atoms: _1  and  _3
REMARK    2  A    between atoms: _3  and  _4
REMARK    3  A    between atoms: _7  and  _9
REMARK    4  A    between atoms: _9  and  _10
REMARK    5  A    between atoms: _9  and  _12
REMARK    6  A    between atoms: _12  and  _13
REMARK    7  A    between atoms: _19  and  _21
REMARK    8  A    between atoms: _21  and  _22
REMARK    9  A    between atoms: _21  and  _24
REMARK   10  A    between atoms: _24  and  _25
REMARK   11  A    between atoms: _30  and  _31
REMARK   12  A    between atoms: _33  and  _35
REMARK   13  A    between atoms: _35  and  _36
REMARK   14  A    between atoms: _38  and  _40
REMARK   15  A    between atoms: _40  and  _41
REMARK   16  A    between atoms: _40  and  _43
REMARK   17  A    between atoms: _43  and  _44
REMARK   18  A    between atoms: _44  and  _45
REMARK   19  A    between atoms: _45  and  _46
REMARK   20  A    between atoms: _46  and  _47
REMARK   21  A    between atoms: _51  and  _53
REMARK   22  A    between atoms: _53  and  _54
REMARK   23  A    between atoms: _53  and  _56
REMARK   24  A    between atoms: _59  and  _61
REMARK   25  A    between atoms: _61  and  _62
REMARK   26  A    between atoms: _61  and  _64
REMARK   27  A    between atoms: _64  and  _65
REMARK   28  A    between atoms: _71  and  _73
REMARK   29  A    between atoms: _73  and  _74
REMARK   30  A    between atoms: _73  and  _76
REMARK   31  A    between atoms: _76  and  _77
REMARK   32  A    between atoms: _77  and  _78
REMARK   33  A    between atoms: _78  and  _79
REMARK   34  A    between atoms: _88  and  _90
REMARK   35  A    between atoms: _90  and  _91
REMARK   36  A    between atoms: _93  and  _95
REMARK   37  A    between atoms: _95  and  _96
REMARK   38  A    between atoms: _95  and  _98
REMARK   39  A    between atoms: _98  and  _99
REMARK   40  A    between atoms: _99  and  _100
REMARK   41  A    between atoms: _100  and  _101
REMARK   42  A    between atoms: _101  and  _102
REMARK   43  A    between atoms: _106  and  _108
REMARK   44  A    between atoms: _108  and  _109
REMARK   45  A    between atoms: _108  and  _111
REMARK   46  A    between atoms: _111  and  _112
REMARK   47  A    between atoms: _117  and  _118
REMARK   48  A    between atoms: _120  and  _122
REMARK   49  A    between atoms: _122  and  _123
REMARK   50  A    between atoms: _122  and  _125
REMARK   51  A    between atoms: _125  and  _126
REMARK   52  A    between atoms: _126  and  _127
REMARK   53  A    between atoms: _132  and  _134
REMARK   54  A    between atoms: _134  and  _135
REMARK   55  A    between atoms: _134  and  _137
REMARK   56  A    between atoms: _137  and  _138
REMARK   57  A    between atoms: _138  and  _139
REMARK   58  A    between atoms: _139  and  _140
REMARK   59  A    between atoms: _149  and  _151
REMARK   60  A    between atoms: _151  and  _152
REMARK   61  A    between atoms: _154  and  _156
REMARK   62  A    between atoms: _156  and  _157
REMARK   63  A    between atoms: _156  and  _159
REMARK   64  A    between atoms: _159  and  _160
REMARK   65  A    between atoms: _165  and  _167
REMARK   66  A    between atoms: _167  and  _168
REMARK   67  A    between atoms: _167  and  _170
REMARK   68  A    between atoms: _170  and  _171
REMARK   69  A    between atoms: _174  and  _176
REMARK   70  A    between atoms: _176  and  _177
REMARK   71  A    between atoms: _176  and  _179
REMARK   72  A    between atoms: _179  and  _180
REMARK   73  A    between atoms: _183  and  _185
REMARK   74  A    between atoms: _185  and  _186
REMARK   75  A    between atoms: _185  and  _188
REMARK   76  A    between atoms: _188  and  _189
REMARK   77  A    between atoms: _194  and  _196
REMARK   78  A    between atoms: _196  and  _197
REMARK   79  A    between atoms: _196  and  _199
REMARK   80  A    between atoms: _199  and  _200
REMARK   81  A    between atoms: _203  and  _205
REMARK   82  A    between atoms: _205  and  _206
REMARK   83  A    between atoms: _205  and  _208
REMARK   84  A    between atoms: _208  and  _209
REMARK   85  A    between atoms: _214  and  _216
REMARK   86  A    between atoms: _216  and  _217
REMARK   87  A    between atoms: _219  and  _221
REMARK   88  A    between atoms: _221  and  _222
REMARK   89  A    between atoms: _224  and  _226
REMARK   90  A    between atoms: _226  and  _227
REMARK   91  A    between atoms: _226  and  _229
REMARK   92  A    between atoms: _229  and  _230
REMARK   93  A    between atoms: _234  and  ZN_1038
REMARK   94  A    between atoms: _235  and  _237
REMARK   95  A    between atoms: _237  and  _238
REMARK   96  A    between atoms: _237  and  _240
REMARK   97  A    between atoms: _240  and  _241
REMARK   98  A    between atoms: _244  and  _246
REMARK   99  A    between atoms: _246  and  _247
REMARK  100  A    between atoms: _246  and  _249
REMARK  101  A    between atoms: _249  and  _250
REMARK  102  A    between atoms: _260  and  _262
REMARK  103  A    between atoms: _262  and  _263
REMARK  104  A    between atoms: _262  and  _265
REMARK  105  A    between atoms: _265  and  _266
REMARK  106  A    between atoms: _269  and  _271
REMARK  107  A    between atoms: _271  and  _272
REMARK  108  A    between atoms: _271  and  _274
REMARK  109  A    between atoms: _274  and  _275
REMARK  110  A    between atoms: _279  and  _280
REMARK  111  A    between atoms: _285  and  _287
REMARK  112  A    between atoms: _287  and  _288
REMARK  113  A    between atoms: _291  and  _293
REMARK  114  A    between atoms: _293  and  _294
REMARK  115  A    between atoms: _293  and  _296
REMARK  116  A    between atoms: _296  and  _297
REMARK  117  A    between atoms: _297  and  _298
REMARK  118  A    between atoms: _301  and  _303
REMARK  119  A    between atoms: _303  and  _304
REMARK  120  A    between atoms: _303  and  _306
REMARK  121  A    between atoms: _306  and  _307
REMARK  122  A    between atoms: _307  and  _308
REMARK  123  A    between atoms: _308  and  _310
REMARK  124  A    between atoms: _310  and  ZN_1037
REMARK  125  A    between atoms: _311  and  _313
REMARK  126  A    between atoms: _313  and  _314
REMARK  127  A    between atoms: _313  and  _316
REMARK  128  A    between atoms: _316  and  _317
REMARK  129  A    between atoms: _323  and  _325
REMARK  130  A    between atoms: _325  and  _326
REMARK  131  A    between atoms: _328  and  _330
REMARK  132  A    between atoms: _330  and  _331
REMARK  133  A    between atoms: _330  and  _333
REMARK  134  A    between atoms: _333  and  _334
REMARK  135  A    between atoms: _337  and  _339
REMARK  136  A    between atoms: _339  and  _340
REMARK  137  A    between atoms: _339  and  _342
REMARK  138  A    between atoms: _342  and  _343
REMARK  139  A    between atoms: _346  and  _348
REMARK  140  A    between atoms: _348  and  _349
REMARK  141  A    between atoms: _348  and  _351
REMARK  142  A    between atoms: _351  and  _352
REMARK  143  A    between atoms: _357  and  _359
REMARK  144  A    between atoms: _359  and  _360
REMARK  145  A    between atoms: _359  and  _362
REMARK  146  A    between atoms: _362  and  _363
REMARK  147  A    between atoms: _363  and  _365
REMARK  148  A    between atoms: _365  and  ZN_1038
REMARK  149  A    between atoms: _366  and  _368
REMARK  150  A    between atoms: _368  and  _369
REMARK  151  A    between atoms: _368  and  _371
REMARK  152  A    between atoms: _371  and  _372
REMARK  153  A    between atoms: _374  and  _376
REMARK  154  A    between atoms: _376  and  _377
REMARK  155  A    between atoms: _376  and  _379
REMARK  156  A    between atoms: _379  and  _380
REMARK  157  A    between atoms: _382  and  _384
REMARK  158  A    between atoms: _384  and  _385
REMARK  159  A    between atoms: _384  and  _387
REMARK  160  A    between atoms: _387  and  _388
REMARK  161  A    between atoms: _391  and  _393
REMARK  162  A    between atoms: _393  and  _394
REMARK  163  A    between atoms: _393  and  _396
REMARK  164  A    between atoms: _396  and  _397
REMARK  165  A    between atoms: _397  and  _398
REMARK  166  A    between atoms: _401  and  _403
REMARK  167  A    between atoms: _403  and  _404
REMARK  168  A    between atoms: _403  and  _406
REMARK  169  A    between atoms: _406  and  _407
REMARK  170  A    between atoms: _412  and  _413
REMARK  171  A    between atoms: _415  and  _417
REMARK  172  A    between atoms: _417  and  _418
REMARK  173  A    between atoms: _417  and  _420
REMARK  174  A    between atoms: _420  and  _421
REMARK  175  A    between atoms: _424  and  _426
REMARK  176  A    between atoms: _426  and  _427
REMARK  177  A    between atoms: _426  and  _429
REMARK  178  A    between atoms: _429  and  _430
REMARK  179  A    between atoms: _433  and  _435
REMARK  180  A    between atoms: _435  and  _436
REMARK  181  A    between atoms: _435  and  _438
REMARK  182  A    between atoms: _438  and  _439
REMARK  183  A    between atoms: _439  and  _440
REMARK  184  A    between atoms: _440  and  _441
REMARK  185  A    between atoms: _450  and  _452
REMARK  186  A    between atoms: _452  and  _453
REMARK  187  A    between atoms: _452  and  _455
REMARK  188  A    between atoms: _458  and  _460
REMARK  189  A    between atoms: _460  and  _461
REMARK  190  A    between atoms: _460  and  _463
REMARK  191  A    between atoms: _463  and  _464
REMARK  192  A    between atoms: _467  and  _469
REMARK  193  A    between atoms: _469  and  _470
REMARK  194  A    between atoms: _469  and  _472
REMARK  195  A    between atoms: _474  and  _476
REMARK  196  A    between atoms: _476  and  _477
REMARK  197  A    between atoms: _476  and  _479
REMARK  198  A    between atoms: _479  and  _480
REMARK  199  A    between atoms: _490  and  _492
REMARK  200  A    between atoms: _492  and  _493
REMARK  201  A    between atoms: _492  and  _495
REMARK  202  A    between atoms: _495  and  _496
REMARK  203  A    between atoms: _496  and  _497
REMARK  204  A    between atoms: _497  and  _498
REMARK  205  A    between atoms: _498  and  _499
REMARK  206  A    between atoms: _503  and  _505
REMARK  207  A    between atoms: _505  and  _506
REMARK  208  A    between atoms: _505  and  _508
REMARK  209  A    between atoms: _508  and  _509
REMARK  210  A    between atoms: _512  and  _513
REMARK  211  A    between atoms: _519  and  _520
REMARK  212  A    between atoms: _525  and  _527
REMARK  213  A    between atoms: _527  and  _528
REMARK  214  A    between atoms: _527  and  _530
REMARK  215  A    between atoms: _530  and  _531
REMARK  216  A    between atoms: _531  and  _532
REMARK  217  A    between atoms: _535  and  _537
REMARK  218  A    between atoms: _537  and  _538
REMARK  219  A    between atoms: _537  and  _540
REMARK  220  A    between atoms: _540  and  _541
REMARK  221  A    between atoms: _541  and  _542
REMARK  222  A    between atoms: _542  and  _543
REMARK  223  A    between atoms: _552  and  _554
REMARK  224  A    between atoms: _554  and  _555
REMARK  225  A    between atoms: _554  and  _557
REMARK  226  A    between atoms: _557  and  _558
REMARK  227  A    between atoms: _561  and  _563
REMARK  228  A    between atoms: _563  and  _564
REMARK  229  A    between atoms: _563  and  _566
REMARK  230  A    between atoms: _566  and  _567
REMARK  231  A    between atoms: _569  and  _571
REMARK  232  A    between atoms: _571  and  _572
REMARK  233  A    between atoms: _571  and  _574
REMARK  234  A    between atoms: _574  and  _575
REMARK  235  A    between atoms: _575  and  _576
REMARK  236  A    between atoms: _576  and  _577
REMARK  237  A    between atoms: _577  and  _578
REMARK  238  A    between atoms: _582  and  _584
REMARK  239  A    between atoms: _584  and  _585
REMARK  240  A    between atoms: _584  and  _587
REMARK  241  A    between atoms: _587  and  _588
REMARK  242  A    between atoms: _591  and  _593
REMARK  243  A    between atoms: _593  and  _594
REMARK  244  A    between atoms: _596  and  _598
REMARK  245  A    between atoms: _598  and  _599
REMARK  246  A    between atoms: _598  and  _601
REMARK  247  A    between atoms: _601  and  _602
REMARK  248  A    between atoms: _604  and  _606
REMARK  249  A    between atoms: _606  and  _607
REMARK  250  A    between atoms: _609  and  _611
REMARK  251  A    between atoms: _611  and  _612
REMARK  252  A    between atoms: _611  and  _614
REMARK  253  A    between atoms: _614  and  _615
REMARK  254  A    between atoms: _620  and  _622
REMARK  255  A    between atoms: _622  and  _623
REMARK  256  A    between atoms: _622  and  _625
REMARK  257  A    between atoms: _625  and  _626
REMARK  258  A    between atoms: _629  and  _631
REMARK  259  A    between atoms: _631  and  _632
REMARK  260  A    between atoms: _631  and  _634
REMARK  261  A    between atoms: _634  and  _635
REMARK  262  A    between atoms: _641  and  _643
REMARK  263  A    between atoms: _643  and  _644
REMARK  264  A    between atoms: _643  and  _646
REMARK  265  A    between atoms: _646  and  _647
REMARK  266  A    between atoms: _647  and  _648
REMARK  267  A    between atoms: _651  and  _653
REMARK  268  A    between atoms: _653  and  _654
REMARK  269  A    between atoms: _653  and  _656
REMARK  270  A    between atoms: _656  and  _657
REMARK  271  A    between atoms: _657  and  _658
REMARK  272  A    between atoms: _663  and  _665
REMARK  273  A    between atoms: _665  and  _666
REMARK  274  A    between atoms: _665  and  _668
REMARK  275  A    between atoms: _668  and  _669
REMARK  276  A    between atoms: _669  and  _670
REMARK  277  A    between atoms: _670  and  _671
REMARK  278  A    between atoms: _680  and  _682
REMARK  279  A    between atoms: _682  and  _683
REMARK  280  A    between atoms: _682  and  _685
REMARK  281  A    between atoms: _685  and  _686
REMARK  282  A    between atoms: _686  and  _687
REMARK  283  A    between atoms: _687  and  _688
REMARK  284  A    between atoms: _697  and  _699
REMARK  285  A    between atoms: _699  and  _700
REMARK  286  A    between atoms: _699  and  _702
REMARK  287  A    between atoms: _702  and  _703
REMARK  288  A    between atoms: _708  and  _709
REMARK  289  A    between atoms: _711  and  _713
REMARK  290  A    between atoms: _713  and  _714
REMARK  291  A    between atoms: _713  and  _716
REMARK  292  A    between atoms: _716  and  _717
REMARK  293  A    between atoms: _720  and  _722
REMARK  294  A    between atoms: _722  and  _723
REMARK  295  A    between atoms: _722  and  _725
REMARK  296  A    between atoms: _725  and  _726
REMARK  297  A    between atoms: _726  and  _727
REMARK  298  A    between atoms: _727  and  _728
REMARK  299  A    between atoms: _728  and  _729
REMARK  300  A    between atoms: _733  and  _735
REMARK  301  A    between atoms: _735  and  _736
REMARK  302  A    between atoms: _735  and  _738
REMARK  303  A    between atoms: _738  and  _739
REMARK  304  A    between atoms: _744  and  _746
REMARK  305  A    between atoms: _746  and  _747
REMARK  306  A    between atoms: _746  and  _749
REMARK  307  A    between atoms: _749  and  _750
REMARK  308  A    between atoms: _760  and  _762
REMARK  309  A    between atoms: _762  and  _763
REMARK  310  A    between atoms: _762  and  _765
REMARK  311  A    between atoms: _765  and  _766
REMARK  312  A    between atoms: _766  and  _767
REMARK  313  A    between atoms: _770  and  _772
REMARK  314  A    between atoms: _772  and  _773
REMARK  315  A    between atoms: _772  and  _775
REMARK  316  A    between atoms: _775  and  _776
REMARK  317  A    between atoms: _779  and  _781
REMARK  318  A    between atoms: _781  and  _782
REMARK  319  A    between atoms: _781  and  _784
REMARK  320  A    between atoms: _784  and  _785
REMARK  321  A    between atoms: _790  and  _792
REMARK  322  A    between atoms: _792  and  _793
REMARK  323  A    between atoms: _792  and  _795
REMARK  324  A    between atoms: _795  and  _796
REMARK  325  A    between atoms: _802  and  _804
REMARK  326  A    between atoms: _804  and  _805
REMARK  327  A    between atoms: _804  and  _807
REMARK  328  A    between atoms: _807  and  _808
REMARK  329  A    between atoms: _810  and  _812
REMARK  330  A    between atoms: _812  and  _813
REMARK  331  A    between atoms: _815  and  _817
REMARK  332  A    between atoms: _817  and  _818
REMARK  333  A    between atoms: _817  and  _820
REMARK  334  A    between atoms: _820  and  _821
REMARK  335  A    between atoms: _826  and  _827
REMARK  336  A    between atoms: _829  and  _831
REMARK  337  A    between atoms: _831  and  _832
REMARK  338  A    between atoms: _831  and  _834
REMARK  339  A    between atoms: _834  and  _835
REMARK  340  A    between atoms: _840  and  _841
REMARK  341  A    between atoms: _843  and  _845
REMARK  342  A    between atoms: _845  and  _846
REMARK  343  A    between atoms: _845  and  _848
REMARK  344  A    between atoms: _848  and  _849
REMARK  345  A    between atoms: _853  and  ZN_1037
REMARK  346  A    between atoms: _854  and  _856
REMARK  347  A    between atoms: _856  and  _857
REMARK  348  A    between atoms: _856  and  _859
REMARK  349  A    between atoms: _859  and  _860
REMARK  350  A    between atoms: _860  and  _861
REMARK  351  A    between atoms: _864  and  _866
REMARK  352  A    between atoms: _866  and  _867
REMARK  353  A    between atoms: _866  and  _869
REMARK  354  A    between atoms: _869  and  _870
REMARK  355  A    between atoms: _870  and  _871
REMARK  356  A    between atoms: _871  and  _872
REMARK  357  A    between atoms: _881  and  _883
REMARK  358  A    between atoms: _883  and  _884
REMARK  359  A    between atoms: _883  and  _886
REMARK  360  A    between atoms: _886  and  _887
REMARK  361  A    between atoms: _887  and  _888
REMARK  362  A    between atoms: _888  and  _889
REMARK  363  A    between atoms: _889  and  _890
REMARK  364  A    between atoms: _894  and  _896
REMARK  365  A    between atoms: _896  and  _897
REMARK  366  A    between atoms: _896  and  _899
REMARK  367  A    between atoms: _899  and  _900
REMARK  368  A    between atoms: _905  and  _906
REMARK  369  A    between atoms: _908  and  _910
REMARK  370  A    between atoms: _910  and  _911
REMARK  371  A    between atoms: _910  and  _913
REMARK  372  A    between atoms: _913  and  _914
REMARK  373  A    between atoms: _914  and  _915
REMARK  374  A    between atoms: _915  and  _916
REMARK  375  A    between atoms: _916  and  _917
REMARK  376  A    between atoms: _921  and  _923
REMARK  377  A    between atoms: _923  and  _924
REMARK  378  A    between atoms: _923  and  _926
REMARK  379  A    between atoms: _926  and  _927
REMARK  380  A    between atoms: _932  and  _933
REMARK  381  A    between atoms: _935  and  _937
REMARK  382  A    between atoms: _937  and  _938
REMARK  383  A    between atoms: _937  and  _940
REMARK  384  A    between atoms: _940  and  _941
REMARK  385  A    between atoms: _946  and  _947
REMARK  386  A    between atoms: _949  and  _951
REMARK  387  A    between atoms: _951  and  _952
REMARK  388  A    between atoms: _956  and  _957
REMARK  389  A    between atoms: _962  and  _964
REMARK  390  A    between atoms: _964  and  _965
REMARK  391  A    between atoms: _964  and  _967
REMARK  392  A    between atoms: _967  and  _968
REMARK  393  A    between atoms: _970  and  _972
REMARK  394  A    between atoms: _972  and  _973
REMARK  395  A    between atoms: _972  and  _975
REMARK  396  A    between atoms: _975  and  _976
REMARK  397  A    between atoms: _981  and  _983
REMARK  398  A    between atoms: _983  and  _984
REMARK  399  A    between atoms: _983  and  _986
REMARK  400  A    between atoms: _986  and  _987
REMARK  401  A    between atoms: _987  and  _988
REMARK  402  A    between atoms: _988  and  _989
REMARK  403  A    between atoms: _989  and  _990
REMARK  404  A    between atoms: _994  and  _996
REMARK  405  A    between atoms: _996  and  _997
REMARK  406  A    between atoms: _996  and  _999
REMARK  407  A    between atoms: _999  and  _1000
REMARK  408  A    between atoms: _1005  and  _1006
REMARK  409  A    between atoms: _1008  and  _1010
REMARK  410  A    between atoms: _1010  and  _1011
REMARK  411  A    between atoms: _1014  and  _1016
REMARK  412  A    between atoms: _1016  and  _1017
REMARK  413  A    between atoms: _1019  and  _1021
REMARK  414  A    between atoms: _1021  and  _1022
REMARK  415  A    between atoms: _1021  and  _1024
REMARK  416  A    between atoms: _1024  and  _1025
REMARK  417  A    between atoms: _1025  and  _1026
REMARK  418  A    between atoms: _1029  and  _1031
REMARK  419  A    between atoms: _1031  and  _1032
REMARK  420  A    between atoms: _1031  and  _1034
REMARK  421  A    between atoms: _1034  and  _1035
REMARK                            x       y       z     vdW  Elec       q    Type
REMARK                         _______ _______ _______ _____ _____    ______ ____
ROOT
ATOM      1  C   LYS A   1      37.244  52.318  54.657  0.00  0.00    +0.238 C 
ATOM      2  N   SER A   2      36.303  53.169  55.066  0.00  0.00    -0.295 N 
ATOM      3  H   SER A   2      36.174  53.333  56.085  0.00  0.00    +0.150 HD
ATOM      4  O   LYS A   1      37.495  52.114  53.464  0.00  0.00    -0.274 OA
ENDROOT
BRANCH   1   5
ATOM      5  CA  LYS A   1      37.988  51.550  55.742  0.00  0.00    +0.145 C 
BRANCH   5   6
ATOM      6  N   LYS A   1      38.075  52.214  57.070  0.00  0.00    -0.238 NA
ATOM      7  H   LYS A   1      37.420  51.925  57.824  0.00  0.00    +0.142 HD
ENDBRANCH   5   6
BRANCH   5   8
ATOM      8  CB  LYS A   1      37.334  50.188  55.906  0.00  0.00    +0.026 C 
BRANCH   8   9
ATOM      9  CG  LYS A   1      38.241  49.202  56.692  0.00  0.00    -0.000 C 
BRANCH   9  10
ATOM     10  CD  LYS A   1      37.483  47.886  56.920  0.00  0.00    -0.024 C 
BRANCH  10  11
ATOM     11  CE  LYS A   1      38.429  46.832  57.494  0.00  0.00    -0.086 C 
BRANCH  11  12
ATOM     12  NZ  LYS A   1      37.803  45.478  57.479  0.00  0.00    +0.380 N 
ATOM     13  HZ1 LYS A   1      36.935  45.492  58.052  0.00  0.00    -0.089 HD
ATOM     14  HZ2 LYS A   1      38.470  44.785  57.875  0.00  0.00    -0.089 HD
ATOM     15  HZ3 LYS A   1      37.569  45.216  56.500  0.00  0.00    -0.089 HD
ENDBRANCH  11  12
ENDBRANCH  10  11
ENDBRANCH   9  10
ENDBRANCH   8   9
ENDBRANCH   5   8
ENDBRANCH   1   5
BRANCH   2  16
ATOM     16  CA  SER A   2      35.454  53.873  54.121  0.00  0.00    +0.178 C 
BRANCH  16  17
ATOM     17  C   SER A   2      35.316  55.342  54.543  0.00  0.00    +0.246 C 
ATOM     18  O   SER A   2      34.238  55.774  54.930  0.00  0.00    -0.273 OA
ATOM     19  N   PRO A   3      36.424  56.108  54.466  0.00  0.00    -0.273 N 
ATOM     20  CA  PRO A   3      36.372  57.485  54.948  0.00  0.00    +0.140 C 
ATOM     21  CB  PRO A   3      37.826  57.968  54.847  0.00  0.00    +0.030 C 
ATOM     22  CG  PRO A   3      38.483  57.025  53.851  0.00  0.00    +0.024 C 
ATOM     23  CD  PRO A   3      37.769  55.708  54.003  0.00  0.00    +0.094 C 
BRANCH  20  24
ATOM     24  C   PRO A   3      35.479  58.349  54.081  0.00  0.00    +0.227 C 
ATOM     25  O   PRO A   3      35.374  58.142  52.865  0.00  0.00    -0.286 OA
ENDBRANCH  20  24
ENDBRANCH  16  17
BRANCH  16  26
ATOM     26  CB  SER A   2      34.084  53.212  54.107  0.00  0.00    +0.166 C 
BRANCH  26  27
ATOM     27  OG  SER A   2      33.404  53.631  52.961  0.00  0.00    -0.380 OA
ATOM     28  H   SER A   2      32.509  53.209  52.937  0.00  0.00    +0.211 HD
ENDBRANCH  26  27
ENDBRANCH  16  26
ENDBRANCH   2  16
TORSDOF 12
REMARK  Name = ../refined-set-2016/2xef/2xef_pocket.pdb
REMARK  421 active torsions:
REMARK  status: ('A' for Active; 'I' for Inactive)
REMARK    1  A    between atoms: _1  and  _3
REMARK    2  A    between atoms: _3  and  _4
REMARK    3  A    between atoms: _7  and  _9
REMARK    4  A    between atoms: _9  and  _10
REMARK    5  A    between atoms: _9  and  _12
REMARK    6  A    between atoms: _12  and  _13
REMARK    7  A    between atoms: _19  and  _21
REMARK    8  A    between atoms: _21  and  _22
REMARK    9  A    between atoms: _21  and  _24
REMARK   10  A    between atoms: _24  and  _25
REMARK   11  A    between atoms: _30  and  _31
REMARK   12  A    between atoms: _33  and  _35
REMARK   13  A    between atoms: _35  and  _36
REMARK   14  A    between atoms: _38  and  _40
REMARK   15  A    between atoms: _40  and  _41
REMARK   16  A    between atoms: _40  and  _43
REMARK   17  A    between atoms: _43  and  _44
REMARK   18  A    between atoms: _44  and  _45
REMARK   19  A    between atoms: _45  and  _46
REMARK   20  A    between atoms: _46  and  _47
REMARK   21  A    between atoms: _51  and  _53
REMARK   22  A    between atoms: _53  and  _54
REMARK   23  A    between atoms: _53  and  _56
REMARK   24  A    between atoms: _59  and  _61
REMARK   25  A    between atoms: _61  and  _62
REMARK   26  A    between atoms: _61  and  _64
REMARK   27  A    between atoms: _64  and  _65
REMARK   28  A    between atoms: _71  and  _73
REMARK   29  A    between atoms: _73  and  _74
REMARK   30  A    between atoms: _73  and  _76
REMARK   31  A    between atoms: _76  and  _77
REMARK   32  A    between atoms: _77  and  _78
REMARK   33  A    between atoms: _78  and  _79
REMARK   34  A    between atoms: _88  and  _90
REMARK   35  A    between atoms: _90  and  _91
REMARK   36  A    between atoms: _93  and  _95
REMARK   37  A    between atoms: _95  and  _96
REMARK   38  A    between atoms: _95  and  _98
REMARK   39  A    between atoms: _98  and  _99
REMARK   40  A    between atoms: _99  and  _100
REMARK   41  A    between atoms: _100  and  _101
REMARK   42  A    between atoms: _101  and  _102
REMARK   43  A    between atoms: _106  and  _108
REMARK   44  A    between atoms: _108  and  _109
REMARK   45  A    between atoms: _108  and  _111
REMARK   46  A    between atoms: _111  and  _112
REMARK   47  A    between atoms: _117  and  _118
REMARK   48  A    between atoms: _120  and  _122
REMARK   49  A    between atoms: _122  and  _123
REMARK   50  A    between atoms: _122  and  _125
REMARK   51  A    between atoms: _125  and  _126
REMARK   52  A    between atoms: _126  and  _127
REMARK   53  A    between atoms: _132  and  _134
REMARK   54  A    between atoms: _134  and  _135
REMARK   55  A    between atoms: _134  and  _137
REMARK   56  A    between atoms: _137  and  _138
REMARK   57  A    between atoms: _138  and  _139
REMARK   58  A    between atoms: _139  and  _140
REMARK   59  A    between atoms: _149  and  _151
REMARK   60  A    between atoms: _151  and  _152
REMARK   61  A    between atoms: _154  and  _156
REMARK   62  A    between atoms: _156  and  _157
REMARK   63  A    between atoms: _156  and  _159
REMARK   64  A    between atoms: _159  and  _160
REMARK   65  A    between atoms: _165  and  _167
REMARK   66  A    between atoms: _167  and  _168
REMARK   67  A    between atoms: _167  and  _170
REMARK   68  A    between atoms: _170  and  _171
REMARK   69  A    between atoms: _174  and  _176
REMARK   70  A    between atoms: _176  and  _177
REMARK   71  A    between atoms: _176  and  _179
REMARK   72  A    between atoms: _179  and  _180
REMARK   73  A    between atoms: _183  and  _185
REMARK   74  A    between atoms: _185  and  _186
REMARK   75  A    between atoms: _185  and  _188
REMARK   76  A    between atoms: _188  and  _189
REMARK   77  A    between atoms: _194  and  _196
REMARK   78  A    between atoms: _196  and  _197
REMARK   79  A    between atoms: _196  and  _199
REMARK   80  A    between atoms: _199  and  _200
REMARK   81  A    between atoms: _203  and  _205
REMARK   82  A    between atoms: _205  and  _206
REMARK   83  A    between atoms: _205  and  _208
REMARK   84  A    between atoms: _208  and  _209
REMARK   85  A    between atoms: _214  and  _216
REMARK   86  A    between atoms: _216  and  _217
REMARK   87  A    between atoms: _219  and  _221
REMARK   88  A    between atoms: _221  and  _222
REMARK   89  A    between atoms: _224  and  _226
REMARK   90  A    between atoms: _226  and  _227
REMARK   91  A    between atoms: _226  and  _229
REMARK   92  A    between atoms: _229  and  _230
REMARK   93  A    between atoms: _234  and  ZN_1038
REMARK   94  A    between atoms: _235  and  _237
REMARK   95  A    between atoms: _237  and  _238
REMARK   96  A    between atoms: _237  and  _240
REMARK   97  A    between atoms: _240  and  _241
REMARK   98  A    between atoms: _244  and  _246
REMARK   99  A    between atoms: _246  and  _247
REMARK  100  A    between atoms: _246  and  _249
REMARK  101  A    between atoms: _249  and  _250
REMARK  102  A    between atoms: _260  and  _262
REMARK  103  A    between atoms: _262  and  _263
REMARK  104  A    between atoms: _262  and  _265
REMARK  105  A    between atoms: _265  and  _266
REMARK  106  A    between atoms: _269  and  _271
REMARK  107  A    between atoms: _271  and  _272
REMARK  108  A    between atoms: _271  and  _274
REMARK  109  A    between atoms: _274  and  _275
REMARK  110  A    between atoms: _279  and  _280
REMARK  111  A    between atoms: _285  and  _287
REMARK  112  A    between atoms: _287  and  _288
REMARK  113  A    between atoms: _291  and  _293
REMARK  114  A    between atoms: _293  and  _294
REMARK  115  A    between atoms: _293  and  _296
REMARK  116  A    between atoms: _296  and  _297
REMARK  117  A    between atoms: _297  and  _298
REMARK  118  A    between atoms: _301  and  _303
REMARK  119  A    between atoms: _303  and  _304
REMARK  120  A    between atoms: _303  and  _306
REMARK  121  A    between atoms: _306  and  _307
REMARK  122  A    between atoms: _307  and  _308
REMARK  123  A    between atoms: _308  and  _310
REMARK  124  A    between atoms: _310  and  ZN_1037
REMARK  125  A    between atoms: _311  and  _313
REMARK  126  A    between atoms: _313  and  _314
REMARK  127  A    between atoms: _313  and  _316
REMARK  128  A    between atoms: _316  and  _317
REMARK  129  A    between atoms: _323  and  _325
REMARK  130  A    between atoms: _325  and  _326
REMARK  131  A    between atoms: _328  and  _330
REMARK  132  A    between atoms: _330  and  _331
REMARK  133  A    between atoms: _330  and  _333
REMARK  134  A    between atoms: _333  and  _334
REMARK  135  A    between atoms: _337  and  _339
REMARK  136  A    between atoms: _339  and  _340
REMARK  137  A    between atoms: _339  and  _342
REMARK  138  A    between atoms: _342  and  _343
REMARK  139  A    between atoms: _346  and  _348
REMARK  140  A    between atoms: _348  and  _349
REMARK  141  A    between atoms: _348  and  _351
REMARK  142  A    between atoms: _351  and  _352
REMARK  143  A    between atoms: _357  and  _359
REMARK  144  A    between atoms: _359  and  _360
REMARK  145  A    between atoms: _359  and  _362
REMARK  146  A    between atoms: _362  and  _363
REMARK  147  A    between atoms: _363  and  _365
REMARK  148  A    between atoms: _365  and  ZN_1038
REMARK  149  A    between atoms: _366  and  _368
REMARK  150  A    between atoms: _368  and  _369
REMARK  151  A    between atoms: _368  and  _371
REMARK  152  A    between atoms: _371  and  _372
REMARK  153  A    between atoms: _374  and  _376
REMARK  154  A    between atoms: _376  and  _377
REMARK  155  A    between atoms: _376  and  _379
REMARK  156  A    between atoms: _379  and  _380
REMARK  157  A    between atoms: _382  and  _384
REMARK  158  A    between atoms: _384  and  _385
REMARK  159  A    between atoms: _384  and  _387
REMARK  160  A    between atoms: _387  and  _388
REMARK  161  A    between atoms: _391  and  _393
REMARK  162  A    between atoms: _393  and  _394
REMARK  163  A    between atoms: _393  and  _396
REMARK  164  A    between atoms: _396  and  _397
REMARK  165  A    between atoms: _397  and  _398
REMARK  166  A    between atoms: _401  and  _403
REMARK  167  A    between atoms: _403  and  _404
REMARK  168  A    between atoms: _403  and  _406
REMARK  169  A    between atoms: _406  and  _407
REMARK  170  A    between atoms: _412  and  _413
REMARK  171  A    between atoms: _415  and  _417
REMARK  172  A    between atoms: _417  and  _418
REMARK  173  A    between atoms: _417  and  _420
REMARK  174  A    between atoms: _420  and  _421
REMARK  175  A    between atoms: _424  and  _426
REMARK  176  A    between atoms: _426  and  _427
REMARK  177  A    between atoms: _426  and  _429
REMARK  178  A    between atoms: _429  and  _430
REMARK  179  A    between atoms: _433  and  _435
REMARK  180  A    between atoms: _435  and  _436
REMARK  181  A    between atoms: _435  and  _438
REMARK  182  A    between atoms: _438  and  _439
REMARK  183  A    between atoms: _439  and  _440
REMARK  184  A    between atoms: _440  and  _441
REMARK  185  A    between atoms: _450  and  _452
REMARK  186  A    between atoms: _452  and  _453
REMARK  187  A    between atoms: _452  and  _455
REMARK  188  A    between atoms: _458  and  _460
REMARK  189  A    between atoms: _460  and  _461
REMARK  190  A    between atoms: _460  and  _463
REMARK  191  A    between atoms: _463  and  _464
REMARK  192  A    between atoms: _467  and  _469
REMARK  193  A    between atoms: _469  and  _470
REMARK  194  A    between atoms: _469  and  _472
REMARK  195  A    between atoms: _474  and  _476
REMARK  196  A    between atoms: _476  and  _477
REMARK  197  A    between atoms: _476  and  _479
REMARK  198  A    between atoms: _479  and  _480
REMARK  199  A    between atoms: _490  and  _492
REMARK  200  A    between atoms: _492  and  _493
REMARK  201  A    between atoms: _492  and  _495
REMARK  202  A    between atoms: _495  and  _496
REMARK  203  A    between atoms: _496  and  _497
REMARK  204  A    between atoms: _497  and  _498
REMARK  205  A    between atoms: _498  and  _499
REMARK  206  A    between atoms: _503  and  _505
REMARK  207  A    between atoms: _505  and  _506
REMARK  208  A    between atoms: _505  and  _508
REMARK  209  A    between atoms: _508  and  _509
REMARK  210  A    between atoms: _512  and  _513
REMARK  211  A    between atoms: _519  and  _520
REMARK  212  A    between atoms: _525  and  _527
REMARK  213  A    between atoms: _527  and  _528
REMARK  214  A    between atoms: _527  and  _530
REMARK  215  A    between atoms: _530  and  _531
REMARK  216  A    between atoms: _531  and  _532
REMARK  217  A    between atoms: _535  and  _537
REMARK  218  A    between atoms: _537  and  _538
REMARK  219  A    between atoms: _537  and  _540
REMARK  220  A    between atoms: _540  and  _541
REMARK  221  A    between atoms: _541  and  _542
REMARK  222  A    between atoms: _542  and  _543
REMARK  223  A    between atoms: _552  and  _554
REMARK  224  A    between atoms: _554  and  _555
REMARK  225  A    between atoms: _554  and  _557
REMARK  226  A    between atoms: _557  and  _558
REMARK  227  A    between atoms: _561  and  _563
REMARK  228  A    between atoms: _563  and  _564
REMARK  229  A    between atoms: _563  and  _566
REMARK  230  A    between atoms: _566  and  _567
REMARK  231  A    between atoms: _569  and  _571
REMARK  232  A    between atoms: _571  and  _572
REMARK  233  A    between atoms: _571  and  _574
REMARK  234  A    between atoms: _574  and  _575
REMARK  235  A    between atoms: _575  and  _576
REMARK  236  A    between atoms: _576  and  _577
REMARK  237  A    between atoms: _577  and  _578
REMARK  238  A    between atoms: _582  and  _584
REMARK  239  A    between atoms: _584  and  _585
REMARK  240  A    between atoms: _584  and  _587
REMARK  241  A    between atoms: _587  and  _588
REMARK  242  A    between atoms: _591  and  _593
REMARK  243  A    between atoms: _593  and  _594
REMARK  244  A    between atoms: _596  and  _598
REMARK  245  A    between atoms: _598  and  _599
REMARK  246  A    between atoms: _598  and  _601
REMARK  247  A    between atoms: _601  and  _602
REMARK  248  A    between atoms: _604  and  _606
REMARK  249  A    between atoms: _606  and  _607
REMARK  250  A    between atoms: _609  and  _611
REMARK  251  A    between atoms: _611  and  _612
REMARK  252  A    between atoms: _611  and  _614
REMARK  253  A    between atoms: _614  and  _615
REMARK  254  A    between atoms: _620  and  _622
REMARK  255  A    between atoms: _622  and  _623
REMARK  256  A    between atoms: _622  and  _625
REMARK  257  A    between atoms: _625  and  _626
REMARK  258  A    between atoms: _629  and  _631
REMARK  259  A    between atoms: _631  and  _632
REMARK  260  A    between atoms: _631  and  _634
REMARK  261  A    between atoms: _634  and  _635
REMARK  262  A    between atoms: _641  and  _643
REMARK  263  A    between atoms: _643  and  _644
REMARK  264  A    between atoms: _643  and  _646
REMARK  265  A    between atoms: _646  and  _647
REMARK  266  A    between atoms: _647  and  _648
REMARK  267  A    between atoms: _651  and  _653
REMARK  268  A    between atoms: _653  and  _654
REMARK  269  A    between atoms: _653  and  _656
REMARK  270  A    between atoms: _656  and  _657
REMARK  271  A    between atoms: _657  and  _658
REMARK  272  A    between atoms: _663  and  _665
REMARK  273  A    between atoms: _665  and  _666
REMARK  274  A    between atoms: _665  and  _668
REMARK  275  A    between atoms: _668  and  _669
REMARK  276  A    between atoms: _669  and  _670
REMARK  277  A    between atoms: _670  and  _671
REMARK  278  A    between atoms: _680  and  _682
REMARK  279  A    between atoms: _682  and  _683
REMARK  280  A    between atoms: _682  and  _685
REMARK  281  A    between atoms: _685  and  _686
REMARK  282  A    between atoms: _686  and  _687
REMARK  283  A    between atoms: _687  and  _688
REMARK  284  A    between atoms: _697  and  _699
REMARK  285  A    between atoms: _699  and  _700
REMARK  286  A    between atoms: _699  and  _702
REMARK  287  A    between atoms: _702  and  _703
REMARK  288  A    between atoms: _708  and  _709
REMARK  289  A    between atoms: _711  and  _713
REMARK  290  A    between atoms: _713  and  _714
REMARK  291  A    between atoms: _713  and  _716
REMARK  292  A    between atoms: _716  and  _717
REMARK  293  A    between atoms: _720  and  _722
REMARK  294  A    between atoms: _722  and  _723
REMARK  295  A    between atoms: _722  and  _725
REMARK  296  A    between atoms: _725  and  _726
REMARK  297  A    between atoms: _726  and  _727
REMARK  298  A    between atoms: _727  and  _728
REMARK  299  A    between atoms: _728  and  _729
REMARK  300  A    between atoms: _733  and  _735
REMARK  301  A    between atoms: _735  and  _736
REMARK  302  A    between atoms: _735  and  _738
REMARK  303  A    between atoms: _738  and  _739
REMARK  304  A    between atoms: _744  and  _746
REMARK  305  A    between atoms: _746  and  _747
REMARK  306  A    between atoms: _746  and  _749
REMARK  307  A    between atoms: _749  and  _750
REMARK  308  A    between atoms: _760  and  _762
REMARK  309  A    between atoms: _762  and  _763
REMARK  310  A    between atoms: _762  and  _765
REMARK  311  A    between atoms: _765  and  _766
REMARK  312  A    between atoms: _766  and  _767
REMARK  313  A    between atoms: _770  and  _772
REMARK  314  A    between atoms: _772  and  _773
REMARK  315  A    between atoms: _772  and  _775
REMARK  316  A    between atoms: _775  and  _776
REMARK  317  A    between atoms: _779  and  _781
REMARK  318  A    between atoms: _781  and  _782
REMARK  319  A    between atoms: _781  and  _784
REMARK  320  A    between atoms: _784  and  _785
REMARK  321  A    between atoms: _790  and  _792
REMARK  322  A    between atoms: _792  and  _793
REMARK  323  A    between atoms: _792  and  _795
REMARK  324  A    between atoms: _795  and  _796
REMARK  325  A    between atoms: _802  and  _804
REMARK  326  A    between atoms: _804  and  _805
REMARK  327  A    between atoms: _804  and  _807
REMARK  328  A    between atoms: _807  and  _808
REMARK  329  A    between atoms: _810  and  _812
REMARK  330  A    between atoms: _812  and  _813
REMARK  331  A    between atoms: _815  and  _817
REMARK  332  A    between atoms: _817  and  _818
REMARK  333  A    between atoms: _817  and  _820
REMARK  334  A    between atoms: _820  and  _821
REMARK  335  A    between atoms: _826  and  _827
REMARK  336  A    between atoms: _829  and  _831
REMARK  337  A    between atoms: _831  and  _832
REMARK  338  A    between atoms: _831  and  _834
REMARK  339  A    between atoms: _834  and  _835
REMARK  340  A    between atoms: _840  and  _841
REMARK  341  A    between atoms: _843  and  _845
REMARK  342  A    between atoms: _845  and  _846
REMARK  343  A    between atoms: _845  and  _848
REMARK  344  A    between atoms: _848  and  _849
REMARK  345  A    between atoms: _853  and  ZN_1037
REMARK  346  A    between atoms: _854  and  _856
REMARK  347  A    between atoms: _856  and  _857
REMARK  348  A    between atoms: _856  and  _859
REMARK  349  A    between atoms: _859  and  _860
REMARK  350  A    between atoms: _860  and  _861
REMARK  351  A    between atoms: _864  and  _866
REMARK  352  A    between atoms: _866  and  _867
REMARK  353  A    between atoms: _866  and  _869
REMARK  354  A    between atoms: _869  and  _870
REMARK  355  A    between atoms: _870  and  _871
REMARK  356  A    between atoms: _871  and  _872
REMARK  357  A    between atoms: _881  and  _883
REMARK  358  A    between atoms: _883  and  _884
REMARK  359  A    between atoms: _883  and  _886
REMARK  360  A    between atoms: _886  and  _887
REMARK  361  A    between atoms: _887  and  _888
REMARK  362  A    between atoms: _888  and  _889
REMARK  363  A    between atoms: _889  and  _890
REMARK  364  A    between atoms: _894  and  _896
REMARK  365  A    between atoms: _896  and  _897
REMARK  366  A    between atoms: _896  and  _899
REMARK  367  A    between atoms: _899  and  _900
REMARK  368  A    between atoms: _905  and  _906
REMARK  369  A    between atoms: _908  and  _910
REMARK  370  A    between atoms: _910  and  _911
REMARK  371  A    between atoms: _910  and  _913
REMARK  372  A    between atoms: _913  and  _914
REMARK  373  A    between atoms: _914  and  _915
REMARK  374  A    between atoms: _915  and  _916
REMARK  375  A    between atoms: _916  and  _917
REMARK  376  A    between atoms: _921  and  _923
REMARK  377  A    between atoms: _923  and  _924
REMARK  378  A    between atoms: _923  and  _926
REMARK  379  A    between atoms: _926  and  _927
REMARK  380  A    between atoms: _932  and  _933
REMARK  381  A    between atoms: _935  and  _937
REMARK  382  A    between atoms: _937  and  _938
REMARK  383  A    between atoms: _937  and  _940
REMARK  384  A    between atoms: _940  and  _941
REMARK  385  A    between atoms: _946  and  _947
REMARK  386  A    between atoms: _949  and  _951
REMARK  387  A    between atoms: _951  and  _952
REMARK  388  A    between atoms: _956  and  _957
REMARK  389  A    between atoms: _962  and  _964
REMARK  390  A    between atoms: _964  and  _965
REMARK  391  A    between atoms: _964  and  _967
REMARK  392  A    between atoms: _967  and  _968
REMARK  393  A    between atoms: _970  and  _972
REMARK  394  A    between atoms: _972  and  _973
REMARK  395  A    between atoms: _972  and  _975
REMARK  396  A    between atoms: _975  and  _976
REMARK  397  A    between atoms: _981  and  _983
REMARK  398  A    between atoms: _983  and  _984
REMARK  399  A    between atoms: _983  and  _986
REMARK  400  A    between atoms: _986  and  _987
REMARK  401  A    between atoms: _987  and  _988
REMARK  402  A    between atoms: _988  and  _989
REMARK  403  A    between atoms: _989  and  _990
REMARK  404  A    between atoms: _994  and  _996
REMARK  405  A    between atoms: _996  and  _997
REMARK  406  A    between atoms: _996  and  _999
REMARK  407  A    between atoms: _999  and  _1000
REMARK  408  A    between atoms: _1005  and  _1006
REMARK  409  A    between atoms: _1008  and  _1010
REMARK  410  A    between atoms: _1010  and  _1011
REMARK  411  A    between atoms: _1014  and  _1016
REMARK  412  A    between atoms: _1016  and  _1017
REMARK  413  A    between atoms: _1019  and  _1021
REMARK  414  A    between atoms: _1021  and  _1022
REMARK  415  A    between atoms: _1021  and  _1024
REMARK  416  A    between atoms: _1024  and  _1025
REMARK  417  A    between atoms: _1025  and  _1026
REMARK  418  A    between atoms: _1029  and  _1031
REMARK  419  A    between atoms: _1031  and  _1032
REMARK  420  A    between atoms: _1031  and  _1034
REMARK  421  A    between atoms: _1034  and  _1035
REMARK                            x       y       z     vdW  Elec       q    Type
REMARK                         _______ _______ _______ _____ _____    ______ ____
ROOT
ATOM      1  C   PRO A   1      35.169  63.671  51.514  0.00  0.00    +0.239 C 
ATOM      2  N   GLU A   2      34.110  64.092  52.201  0.00  0.00    -0.298 N 
ATOM      3  H   GLU A   2      33.339  63.431  52.426  0.00  0.00    +0.150 HD
ATOM      4  O   PRO A   1      36.163  64.382  51.322  0.00  0.00    -0.274 OA
ENDROOT
BRANCH   1   9
ATOM      5  N   PRO A   1      34.410  61.331  51.884  0.00  0.00    -0.210 NA
ATOM      6  CD  PRO A   1      33.232  60.721  51.243  0.00  0.00    +0.089 C 
ATOM      7  CG  PRO A   1      33.019  61.564  50.047  0.00  0.00    +0.021 C 
ATOM      8  CB  PRO A   1      34.338  62.149  49.678  0.00  0.00    +0.028 C 
ATOM      9  CA  PRO A   1      35.137  62.227  50.985  0.00  0.00    +0.149 C 
ENDBRANCH   1   9
BRANCH   2  10
ATOM     10  CA  GLU A   2      34.031  65.484  52.639  0.00  0.00    +0.137 C 
BRANCH  10  11
ATOM     11  C   GLU A   2      34.685  65.758  54.005  0.00  0.00    +0.227 C 
ATOM     12  O   GLU A   2      35.197  66.855  54.225  0.00  0.00    -0.286 OA
ENDBRANCH  10  11
BRANCH  10  13
ATOM     13  CB  GLU A   2      32.587  66.004  52.582  0.00  0.00    +0.039 C 
BRANCH  13  14
ATOM     14  CG  GLU A   2      31.923  65.902  51.183  0.00  0.00    +0.116 C 
BRANCH  14  15
ATOM     15  CD  GLU A   2      30.913  64.764  51.074  0.00  0.00    +0.365 C 
ATOM     16  OE2 GLU A   2      30.508  64.235  52.133  0.00  0.00    -0.246 OA
ATOM     17  OE1 GLU A   2      30.502  64.405  49.940  0.00  0.00    -0.246 OA
ENDBRANCH  14  15
ENDBRANCH  13  14
ENDBRANCH  10  13
ENDBRANCH   2  10
TORSDOF 6
REMARK  Name = ../refined-set-2016/2xef/2xef_pocket.pdb
REMARK  421 active torsions:
REMARK  status: ('A' for Active; 'I' for Inactive)
REMARK    1  A    between atoms: _1  and  _3
REMARK    2  A    between atoms: _3  and  _4
REMARK    3  A    between atoms: _7  and  _9
REMARK    4  A    between atoms: _9  and  _10
REMARK    5  A    between atoms: _9  and  _12
REMARK    6  A    between atoms: _12  and  _13
REMARK    7  A    between atoms: _19  and  _21
REMARK    8  A    between atoms: _21  and  _22
REMARK    9  A    between atoms: _21  and  _24
REMARK   10  A    between atoms: _24  and  _25
REMARK   11  A    between atoms: _30  and  _31
REMARK   12  A    between atoms: _33  and  _35
REMARK   13  A    between atoms: _35  and  _36
REMARK   14  A    between atoms: _38  and  _40
REMARK   15  A    between atoms: _40  and  _41
REMARK   16  A    between atoms: _40  and  _43
REMARK   17  A    between atoms: _43  and  _44
REMARK   18  A    between atoms: _44  and  _45
REMARK   19  A    between atoms: _45  and  _46
REMARK   20  A    between atoms: _46  and  _47
REMARK   21  A    between atoms: _51  and  _53
REMARK   22  A    between atoms: _53  and  _54
REMARK   23  A    between atoms: _53  and  _56
REMARK   24  A    between atoms: _59  and  _61
REMARK   25  A    between atoms: _61  and  _62
REMARK   26  A    between atoms: _61  and  _64
REMARK   27  A    between atoms: _64  and  _65
REMARK   28  A    between atoms: _71  and  _73
REMARK   29  A    between atoms: _73  and  _74
REMARK   30  A    between atoms: _73  and  _76
REMARK   31  A    between atoms: _76  and  _77
REMARK   32  A    between atoms: _77  and  _78
REMARK   33  A    between atoms: _78  and  _79
REMARK   34  A    between atoms: _88  and  _90
REMARK   35  A    between atoms: _90  and  _91
REMARK   36  A    between atoms: _93  and  _95
REMARK   37  A    between atoms: _95  and  _96
REMARK   38  A    between atoms: _95  and  _98
REMARK   39  A    between atoms: _98  and  _99
REMARK   40  A    between atoms: _99  and  _100
REMARK   41  A    between atoms: _100  and  _101
REMARK   42  A    between atoms: _101  and  _102
REMARK   43  A    between atoms: _106  and  _108
REMARK   44  A    between atoms: _108  and  _109
REMARK   45  A    between atoms: _108  and  _111
REMARK   46  A    between atoms: _111  and  _112
REMARK   47  A    between atoms: _117  and  _118
REMARK   48  A    between atoms: _120  and  _122
REMARK   49  A    between atoms: _122  and  _123
REMARK   50  A    between atoms: _122  and  _125
REMARK   51  A    between atoms: _125  and  _126
REMARK   52  A    between atoms: _126  and  _127
REMARK   53  A    between atoms: _132  and  _134
REMARK   54  A    between atoms: _134  and  _135
REMARK   55  A    between atoms: _134  and  _137
REMARK   56  A    between atoms: _137  and  _138
REMARK   57  A    between atoms: _138  and  _139
REMARK   58  A    between atoms: _139  and  _140
REMARK   59  A    between atoms: _149  and  _151
REMARK   60  A    between atoms: _151  and  _152
REMARK   61  A    between atoms: _154  and  _156
REMARK   62  A    between atoms: _156  and  _157
REMARK   63  A    between atoms: _156  and  _159
REMARK   64  A    between atoms: _159  and  _160
REMARK   65  A    between atoms: _165  and  _167
REMARK   66  A    between atoms: _167  and  _168
REMARK   67  A    between atoms: _167  and  _170
REMARK   68  A    between atoms: _170  and  _171
REMARK   69  A    between atoms: _174  and  _176
REMARK   70  A    between atoms: _176  and  _177
REMARK   71  A    between atoms: _176  and  _179
REMARK   72  A    between atoms: _179  and  _180
REMARK   73  A    between atoms: _183  and  _185
REMARK   74  A    between atoms: _185  and  _186
REMARK   75  A    between atoms: _185  and  _188
REMARK   76  A    between atoms: _188  and  _189
REMARK   77  A    between atoms: _194  and  _196
REMARK   78  A    between atoms: _196  and  _197
REMARK   79  A    between atoms: _196  and  _199
REMARK   80  A    between atoms: _199  and  _200
REMARK   81  A    between atoms: _203  and  _205
REMARK   82  A    between atoms: _205  and  _206
REMARK   83  A    between atoms: _205  and  _208
REMARK   84  A    between atoms: _208  and  _209
REMARK   85  A    between atoms: _214  and  _216
REMARK   86  A    between atoms: _216  and  _217
REMARK   87  A    between atoms: _219  and  _221
REMARK   88  A    between atoms: _221  and  _222
REMARK   89  A    between atoms: _224  and  _226
REMARK   90  A    between atoms: _226  and  _227
REMARK   91  A    between atoms: _226  and  _229
REMARK   92  A    between atoms: _229  and  _230
REMARK   93  A    between atoms: _234  and  ZN_1038
REMARK   94  A    between atoms: _235  and  _237
REMARK   95  A    between atoms: _237  and  _238
REMARK   96  A    between atoms: _237  and  _240
REMARK   97  A    between atoms: _240  and  _241
REMARK   98  A    between atoms: _244  and  _246
REMARK   99  A    between atoms: _246  and  _247
REMARK  100  A    between atoms: _246  and  _249
REMARK  101  A    between atoms: _249  and  _250
REMARK  102  A    between atoms: _260  and  _262
REMARK  103  A    between atoms: _262  and  _263
REMARK  104  A    between atoms: _262  and  _265
REMARK  105  A    between atoms: _265  and  _266
REMARK  106  A    between atoms: _269  and  _271
REMARK  107  A    between atoms: _271  and  _272
REMARK  108  A    between atoms: _271  and  _274
REMARK  109  A    between atoms: _274  and  _275
REMARK  110  A    between atoms: _279  and  _280
REMARK  111  A    between atoms: _285  and  _287
REMARK  112  A    between atoms: _287  and  _288
REMARK  113  A    between atoms: _291  and  _293
REMARK  114  A    between atoms: _293  and  _294
REMARK  115  A    between atoms: _293  and  _296
REMARK  116  A    between atoms: _296  and  _297
REMARK  117  A    between atoms: _297  and  _298
REMARK  118  A    between atoms: _301  and  _303
REMARK  119  A    between atoms: _303  and  _304
REMARK  120  A    between atoms: _303  and  _306
REMARK  121  A    between atoms: _306  and  _307
REMARK  122  A    between atoms: _307  and  _308
REMARK  123  A    between atoms: _308  and  _310
REMARK  124  A    between atoms: _310  and  ZN_1037
REMARK  125  A    between atoms: _311  and  _313
REMARK  126  A    between atoms: _313  and  _314
REMARK  127  A    between atoms: _313  and  _316
REMARK  128  A    between atoms: _316  and  _317
REMARK  129  A    between atoms: _323  and  _325
REMARK  130  A    between atoms: _325  and  _326
REMARK  131  A    between atoms: _328  and  _330
REMARK  132  A    between atoms: _330  and  _331
REMARK  133  A    between atoms: _330  and  _333
REMARK  134  A    between atoms: _333  and  _334
REMARK  135  A    between atoms: _337  and  _339
REMARK  136  A    between atoms: _339  and  _340
REMARK  137  A    between atoms: _339  and  _342
REMARK  138  A    between atoms: _342  and  _343
REMARK  139  A    between atoms: _346  and  _348
REMARK  140  A    between atoms: _348  and  _349
REMARK  141  A    between atoms: _348  and  _351
REMARK  142  A    between atoms: _351  and  _352
REMARK  143  A    between atoms: _357  and  _359
REMARK  144  A    between atoms: _359  and  _360
REMARK  145  A    between atoms: _359  and  _362
REMARK  146  A    between atoms: _362  and  _363
REMARK  147  A    between atoms: _363  and  _365
REMARK  148  A    between atoms: _365  and  ZN_1038
REMARK  149  A    between atoms: _366  and  _368
REMARK  150  A    between atoms: _368  and  _369
REMARK  151  A    between atoms: _368  and  _371
REMARK  152  A    between atoms: _371  and  _372
REMARK  153  A    between atoms: _374  and  _376
REMARK  154  A    between atoms: _376  and  _377
REMARK  155  A    between atoms: _376  and  _379
REMARK  156  A    between atoms: _379  and  _380
REMARK  157  A    between atoms: _382  and  _384
REMARK  158  A    between atoms: _384  and  _385
REMARK  159  A    between atoms: _384  and  _387
REMARK  160  A    between atoms: _387  and  _388
REMARK  161  A    between atoms: _391  and  _393
REMARK  162  A    between atoms: _393  and  _394
REMARK  163  A    between atoms: _393  and  _396
REMARK  164  A    between atoms: _396  and  _397
REMARK  165  A    between atoms: _397  and  _398
REMARK  166  A    between atoms: _401  and  _403
REMARK  167  A    between atoms: _403  and  _404
REMARK  168  A    between atoms: _403  and  _406
REMARK  169  A    between atoms: _406  and  _407
REMARK  170  A    between atoms: _412  and  _413
REMARK  171  A    between atoms: _415  and  _417
REMARK  172  A    between atoms: _417  and  _418
REMARK  173  A    between atoms: _417  and  _420
REMARK  174  A    between atoms: _420  and  _421
REMARK  175  A    between atoms: _424  and  _426
REMARK  176  A    between atoms: _426  and  _427
REMARK  177  A    between atoms: _426  and  _429
REMARK  178  A    between atoms: _429  and  _430
REMARK  179  A    between atoms: _433  and  _435
REMARK  180  A    between atoms: _435  and  _436
REMARK  181  A    between atoms: _435  and  _438
REMARK  182  A    between atoms: _438  and  _439
REMARK  183  A    between atoms: _439  and  _440
REMARK  184  A    between atoms: _440  and  _441
REMARK  185  A    between atoms: _450  and  _452
REMARK  186  A    between atoms: _452  and  _453
REMARK  187  A    between atoms: _452  and  _455
REMARK  188  A    between atoms: _458  and  _460
REMARK  189  A    between atoms: _460  and  _461
REMARK  190  A    between atoms: _460  and  _463
REMARK  191  A    between atoms: _463  and  _464
REMARK  192  A    between atoms: _467  and  _469
REMARK  193  A    between atoms: _469  and  _470
REMARK  194  A    between atoms: _469  and  _472
REMARK  195  A    between atoms: _474  and  _476
REMARK  196  A    between atoms: _476  and  _477
REMARK  197  A    between atoms: _476  and  _479
REMARK  198  A    between atoms: _479  and  _480
REMARK  199  A    between atoms: _490  and  _492
REMARK  200  A    between atoms: _492  and  _493
REMARK  201  A    between atoms: _492  and  _495
REMARK  202  A    between atoms: _495  and  _496
REMARK  203  A    between atoms: _496  and  _497
REMARK  204  A    between atoms: _497  and  _498
REMARK  205  A    between atoms: _498  and  _499
REMARK  206  A    between atoms: _503  and  _505
REMARK  207  A    between atoms: _505  and  _506
REMARK  208  A    between atoms: _505  and  _508
REMARK  209  A    between atoms: _508  and  _509
REMARK  210  A    between atoms: _512  and  _513
REMARK  211  A    between atoms: _519  and  _520
REMARK  212  A    between atoms: _525  and  _527
REMARK  213  A    between atoms: _527  and  _528
REMARK  214  A    between atoms: _527  and  _530
REMARK  215  A    between atoms: _530  and  _531
REMARK  216  A    between atoms: _531  and  _532
REMARK  217  A    between atoms: _535  and  _537
REMARK  218  A    between atoms: _537  and  _538
REMARK  219  A    between atoms: _537  and  _540
REMARK  220  A    between atoms: _540  and  _541
REMARK  221  A    between atoms: _541  and  _542
REMARK  222  A    between atoms: _542  and  _543
REMARK  223  A    between atoms: _552  and  _554
REMARK  224  A    between atoms: _554  and  _555
REMARK  225  A    between atoms: _554  and  _557
REMARK  226  A    between atoms: _557  and  _558
REMARK  227  A    between atoms: _561  and  _563
REMARK  228  A    between atoms: _563  and  _564
REMARK  229  A    between atoms: _563  and  _566
REMARK  230  A    between atoms: _566  and  _567
REMARK  231  A    between atoms: _569  and  _571
REMARK  232  A    between atoms: _571  and  _572
REMARK  233  A    between atoms: _571  and  _574
REMARK  234  A    between atoms: _574  and  _575
REMARK  235  A    between atoms: _575  and  _576
REMARK  236  A    between atoms: _576  and  _577
REMARK  237  A    between atoms: _577  and  _578
REMARK  238  A    between atoms: _582  and  _584
REMARK  239  A    between atoms: _584  and  _585
REMARK  240  A    between atoms: _584  and  _587
REMARK  241  A    between atoms: _587  and  _588
REMARK  242  A    between atoms: _591  and  _593
REMARK  243  A    between atoms: _593  and  _594
REMARK  244  A    between atoms: _596  and  _598
REMARK  245  A    between atoms: _598  and  _599
REMARK  246  A    between atoms: _598  and  _601
REMARK  247  A    between atoms: _601  and  _602
REMARK  248  A    between atoms: _604  and  _606
REMARK  249  A    between atoms: _606  and  _607
REMARK  250  A    between atoms: _609  and  _611
REMARK  251  A    between atoms: _611  and  _612
REMARK  252  A    between atoms: _611  and  _614
REMARK  253  A    between atoms: _614  and  _615
REMARK  254  A    between atoms: _620  and  _622
REMARK  255  A    between atoms: _622  and  _623
REMARK  256  A    between atoms: _622  and  _625
REMARK  257  A    between atoms: _625  and  _626
REMARK  258  A    between atoms: _629  and  _631
REMARK  259  A    between atoms: _631  and  _632
REMARK  260  A    between atoms: _631  and  _634
REMARK  261  A    between atoms: _634  and  _635
REMARK  262  A    between atoms: _641  and  _643
REMARK  263  A    between atoms: _643  and  _644
REMARK  264  A    between atoms: _643  and  _646
REMARK  265  A    between atoms: _646  and  _647
REMARK  266  A    between atoms: _647  and  _648
REMARK  267  A    between atoms: _651  and  _653
REMARK  268  A    between atoms: _653  and  _654
REMARK  269  A    between atoms: _653  and  _656
REMARK  270  A    between atoms: _656  and  _657
REMARK  271  A    between atoms: _657  and  _658
REMARK  272  A    between atoms: _663  and  _665
REMARK  273  A    between atoms: _665  and  _666
REMARK  274  A    between atoms: _665  and  _668
REMARK  275  A    between atoms: _668  and  _669
REMARK  276  A    between atoms: _669  and  _670
REMARK  277  A    between atoms: _670  and  _671
REMARK  278  A    between atoms: _680  and  _682
REMARK  279  A    between atoms: _682  and  _683
REMARK  280  A    between atoms: _682  and  _685
REMARK  281  A    between atoms: _685  and  _686
REMARK  282  A    between atoms: _686  and  _687
REMARK  283  A    between atoms: _687  and  _688
REMARK  284  A    between atoms: _697  and  _699
REMARK  285  A    between atoms: _699  and  _700
REMARK  286  A    between atoms: _699  and  _702
REMARK  287  A    between atoms: _702  and  _703
REMARK  288  A    between atoms: _708  and  _709
REMARK  289  A    between atoms: _711  and  _713
REMARK  290  A    between atoms: _713  and  _714
REMARK  291  A    between atoms: _713  and  _716
REMARK  292  A    between atoms: _716  and  _717
REMARK  293  A    between atoms: _720  and  _722
REMARK  294  A    between atoms: _722  and  _723
REMARK  295  A    between atoms: _722  and  _725
REMARK  296  A    between atoms: _725  and  _726
REMARK  297  A    between atoms: _726  and  _727
REMARK  298  A    between atoms: _727  and  _728
REMARK  299  A    between atoms: _728  and  _729
REMARK  300  A    between atoms: _733  and  _735
REMARK  301  A    between atoms: _735  and  _736
REMARK  302  A    between atoms: _735  and  _738
REMARK  303  A    between atoms: _738  and  _739
REMARK  304  A    between atoms: _744  and  _746
REMARK  305  A    between atoms: _746  and  _747
REMARK  306  A    between atoms: _746  and  _749
REMARK  307  A    between atoms: _749  and  _750
REMARK  308  A    between atoms: _760  and  _762
REMARK  309  A    between atoms: _762  and  _763
REMARK  310  A    between atoms: _762  and  _765
REMARK  311  A    between atoms: _765  and  _766
REMARK  312  A    between atoms: _766  and  _767
REMARK  313  A    between atoms: _770  and  _772
REMARK  314  A    between atoms: _772  and  _773
REMARK  315  A    between atoms: _772  and  _775
REMARK  316  A    between atoms: _775  and  _776
REMARK  317  A    between atoms: _779  and  _781
REMARK  318  A    between atoms: _781  and  _782
REMARK  319  A    between atoms: _781  and  _784
REMARK  320  A    between atoms: _784  and  _785
REMARK  321  A    between atoms: _790  and  _792
REMARK  322  A    between atoms: _792  and  _793
REMARK  323  A    between atoms: _792  and  _795
REMARK  324  A    between atoms: _795  and  _796
REMARK  325  A    between atoms: _802  and  _804
REMARK  326  A    between atoms: _804  and  _805
REMARK  327  A    between atoms: _804  and  _807
REMARK  328  A    between atoms: _807  and  _808
REMARK  329  A    between atoms: _810  and  _812
REMARK  330  A    between atoms: _812  and  _813
REMARK  331  A    between atoms: _815  and  _817
REMARK  332  A    between atoms: _817  and  _818
REMARK  333  A    between atoms: _817  and  _820
REMARK  334  A    between atoms: _820  and  _821
REMARK  335  A    between atoms: _826  and  _827
REMARK  336  A    between atoms: _829  and  _831
REMARK  337  A    between atoms: _831  and  _832
REMARK  338  A    between atoms: _831  and  _834
REMARK  339  A    between atoms: _834  and  _835
REMARK  340  A    between atoms: _840  and  _841
REMARK  341  A    between atoms: _843  and  _845
REMARK  342  A    between atoms: _845  and  _846
REMARK  343  A    between atoms: _845  and  _848
REMARK  344  A    between atoms: _848  and  _849
REMARK  345  A    between atoms: _853  and  ZN_1037
REMARK  346  A    between atoms: _854  and  _856
REMARK  347  A    between atoms: _856  and  _857
REMARK  348  A    between atoms: _856  and  _859
REMARK  349  A    between atoms: _859  and  _860
REMARK  350  A    between atoms: _860  and  _861
REMARK  351  A    between atoms: _864  and  _866
REMARK  352  A    between atoms: _866  and  _867
REMARK  353  A    between atoms: _866  and  _869
REMARK  354  A    between atoms: _869  and  _870
REMARK  355  A    between atoms: _870  and  _871
REMARK  356  A    between atoms: _871  and  _872
REMARK  357  A    between atoms: _881  and  _883
REMARK  358  A    between atoms: _883  and  _884
REMARK  359  A    between atoms: _883  and  _886
REMARK  360  A    between atoms: _886  and  _887
REMARK  361  A    between atoms: _887  and  _888
REMARK  362  A    between atoms: _888  and  _889
REMARK  363  A    between atoms: _889  and  _890
REMARK  364  A    between atoms: _894  and  _896
REMARK  365  A    between atoms: _896  and  _897
REMARK  366  A    between atoms: _896  and  _899
REMARK  367  A    between atoms: _899  and  _900
REMARK  368  A    between atoms: _905  and  _906
REMARK  369  A    between atoms: _908  and  _910
REMARK  370  A    between atoms: _910  and  _911
REMARK  371  A    between atoms: _910  and  _913
REMARK  372  A    between atoms: _913  and  _914
REMARK  373  A    between atoms: _914  and  _915
REMARK  374  A    between atoms: _915  and  _916
REMARK  375  A    between atoms: _916  and  _917
REMARK  376  A    between atoms: _921  and  _923
REMARK  377  A    between atoms: _923  and  _924
REMARK  378  A    between atoms: _923  and  _926
REMARK  379  A    between atoms: _926  and  _927
REMARK  380  A    between atoms: _932  and  _933
REMARK  381  A    between atoms: _935  and  _937
REMARK  382  A    between atoms: _937  and  _938
REMARK  383  A    between atoms: _937  and  _940
REMARK  384  A    between atoms: _940  and  _941
REMARK  385  A    between atoms: _946  and  _947
REMARK  386  A    between atoms: _949  and  _951
REMARK  387  A    between atoms: _951  and  _952
REMARK  388  A    between atoms: _956  and  _957
REMARK  389  A    between atoms: _962  and  _964
REMARK  390  A    between atoms: _964  and  _965
REMARK  391  A    between atoms: _964  and  _967
REMARK  392  A    between atoms: _967  and  _968
REMARK  393  A    between atoms: _970  and  _972
REMARK  394  A    between atoms: _972  and  _973
REMARK  395  A    between atoms: _972  and  _975
REMARK  396  A    between atoms: _975  and  _976
REMARK  397  A    between atoms: _981  and  _983
REMARK  398  A    between atoms: _983  and  _984
REMARK  399  A    between atoms: _983  and  _986
REMARK  400  A    between atoms: _986  and  _987
REMARK  401  A    between atoms: _987  and  _988
REMARK  402  A    between atoms: _988  and  _989
REMARK  403  A    between atoms: _989  and  _990
REMARK  404  A    between atoms: _994  and  _996
REMARK  405  A    between atoms: _996  and  _997
REMARK  406  A    between atoms: _996  and  _999
REMARK  407  A    between atoms: _999  and  _1000
REMARK  408  A    between atoms: _1005  and  _1006
REMARK  409  A    between atoms: _1008  and  _1010
REMARK  410  A    between atoms: _1010  and  _1011
REMARK  411  A    between atoms: _1014  and  _1016
REMARK  412  A    between atoms: _1016  and  _1017
REMARK  413  A    between atoms: _1019  and  _1021
REMARK  414  A    between atoms: _1021  and  _1022
REMARK  415  A    between atoms: _1021  and  _1024
REMARK  416  A    between atoms: _1024  and  _1025
REMARK  417  A    between atoms: _1025  and  _1026
REMARK  418  A    between atoms: _1029  and  _1031
REMARK  419  A    between atoms: _1031  and  _1032
REMARK  420  A    between atoms: _1031  and  _1034
REMARK  421  A    between atoms: _1034  and  _1035
REMARK                            x       y       z     vdW  Elec       q    Type
REMARK                         _______ _______ _______ _____ _____    ______ ____
ROOT
ATOM      1  C   LEU A   5      19.563  56.729  46.854  0.00  0.00    +0.241 C 
ATOM      2  O   LEU A   5      19.261  57.839  46.335  0.00  0.00    -0.273 OA
ATOM      3  N   GLY A   6      19.745  55.601  46.168  0.00  0.00    -0.295 N 
ATOM      4  H   GLY A   6      20.135  54.762  46.642  0.00  0.00    +0.150 HD
ENDROOT
BRANCH   3   5
ATOM      5  CA  GLY A   6      19.398  55.543  44.756  0.00  0.00    +0.176 C 
BRANCH   5   6
ATOM      6  C   GLY A   6      18.016  54.922  44.608  0.00  0.00    +0.243 C 
ATOM      7  O   GLY A   6      17.053  55.340  45.222  0.00  0.00    -0.273 OA
ATOM      8  N   SER A   7      17.918  53.910  43.744  0.00  0.00    -0.295 N 
ATOM      9  H   SER A   7      18.722  53.672  43.128  0.00  0.00    +0.150 HD
BRANCH   8  10
ATOM     10  CA  SER A   7      16.688  53.140  43.664  0.00  0.00    +0.178 C 
BRANCH  10  11
ATOM     11  C   SER A   7      17.011  51.702  43.290  0.00  0.00    +0.243 C 
ATOM     12  O   SER A   7      18.161  51.240  43.500  0.00  0.00    -0.273 OA
ATOM     13  N   GLY A   8      16.017  50.951  42.809  0.00  0.00    -0.295 N 
ATOM     14  H   GLY A   8      15.090  51.377  42.609  0.00  0.00    +0.150 HD
BRANCH  13  15
ATOM     15  CA  GLY A   8      16.238  49.533  42.566  0.00  0.00    +0.176 C 
BRANCH  15  16
ATOM     16  C   GLY A   8      16.024  48.694  43.833  0.00  0.00    +0.243 C 
ATOM     17  N   ASN A   9      15.243  49.241  44.772  0.00  0.00    -0.297 N 
ATOM     18  H   ASN A   9      14.929  50.230  44.695  0.00  0.00    +0.150 HD
ATOM     19  O   GLY A   8      16.467  47.563  43.942  0.00  0.00    -0.273 OA
BRANCH  17  20
ATOM     20  CA  ASN A   9      14.839  48.407  45.918  0.00  0.00    +0.158 C 
BRANCH  20  21
ATOM     21  C   ASN A   9      13.624  48.993  46.602  0.00  0.00    +0.241 C 
ATOM     22  N   ASP A  10      13.119  48.277  47.598  0.00  0.00    -0.297 N 
ATOM     23  H   ASP A  10      13.698  47.551  48.067  0.00  0.00    +0.150 HD
ATOM     24  O   ASN A   9      13.141  50.057  46.213  0.00  0.00    -0.273 OA
BRANCH  22  25
ATOM     25  CA  ASP A  10      11.727  48.518  48.038  0.00  0.00    +0.160 C 
BRANCH  25  26
ATOM     26  C   ASP A  10      11.506  49.815  48.828  0.00  0.00    +0.241 C 
ATOM     27  N   PHE A  11      12.581  50.540  49.142  0.00  0.00    -0.297 N 
ATOM     28  H   PHE A  11      13.541  50.184  48.962  0.00  0.00    +0.150 HD
ATOM     29  O   ASP A  10      10.321  50.200  49.049  0.00  0.00    -0.273 OA
BRANCH  27  30
ATOM     30  CA  PHE A  11      12.360  51.870  49.756  0.00  0.00    +0.153 C 
BRANCH  30  31
ATOM     31  C   PHE A  11      11.877  52.923  48.771  0.00  0.00    +0.241 C 
ATOM     32  O   PHE A  11      11.465  54.002  49.213  0.00  0.00    -0.273 OA
ATOM     33  N   GLU A  12      11.881  52.630  47.451  0.00  0.00    -0.298 N 
ATOM     34  H   GLU A  12      12.067  51.656  47.138  0.00  0.00    +0.150 HD
BRANCH  33  35
ATOM     35  CA  GLU A  12      11.624  53.680  46.456  0.00  0.00    +0.137 C 
BRANCH  35  36
ATOM     36  C   GLU A  12      10.262  54.342  46.710  0.00  0.00    +0.227 C 
ATOM     37  O   GLU A  12      10.160  55.587  46.681  0.00  0.00    -0.286 OA
ENDBRANCH  35  36
BRANCH  35  38
ATOM     38  CB  GLU A  12      11.622  53.088  45.028  0.00  0.00    +0.039 C 
BRANCH  38  39
ATOM     39  CG  GLU A  12      11.537  54.173  43.944  0.00  0.00    +0.116 C 
BRANCH  39  40
ATOM     40  CD  GLU A  12      11.436  53.557  42.519  0.00  0.00    +0.365 C 
ATOM     41  OE2 GLU A  12      10.397  52.920  42.258  0.00  0.00    -0.246 OA
ATOM     42  OE1 GLU A  12      12.367  53.762  41.701  0.00  0.00    -0.246 OA
ENDBRANCH  39  40
ENDBRANCH  38  39
ENDBRANCH  35  38
ENDBRANCH  33  35
ENDBRANCH  30  31
BRANCH  30  43
ATOM     43  CB  PHE A  11      13.677  52.364  50.390  0.00  0.00    +0.055 C 
BRANCH  43  44
ATOM     44  CG  PHE A  11      14.777  52.440  49.401  0.00  0.00    -0.020 A 
ATOM     45  CD2 PHE A  11      15.753  51.411  49.325  0.00  0.00    -0.004 A 
ATOM     46  CE2 PHE A  11      16.795  51.469  48.355  0.00  0.00    -0.000 A 
ATOM     47  CZ  PHE A  11      16.894  52.608  47.490  0.00  0.00    -0.000 A 
ATOM     48  CE1 PHE A  11      15.973  53.647  47.606  0.00  0.00    -0.000 A 
ATOM     49  CD1 PHE A  11      14.903  53.606  48.570  0.00  0.00    -0.004 A 
ENDBRANCH  43  44
ENDBRANCH  30  43
ENDBRANCH  27  30
ENDBRANCH  25  26
BRANCH  25  50
ATOM     50  CB  ASP A  10      11.231  47.352  48.920  0.00  0.00    +0.143 C 
BRANCH  50  51
ATOM     51  CG  ASP A  10      10.851  46.117  48.094  0.00  0.00    +0.367 C 
ATOM     52  OD2 ASP A  10      11.290  45.004  48.440  0.00  0.00    -0.246 OA
ATOM     53  OD1 ASP A  10      10.166  46.307  47.084  0.00  0.00    -0.246 OA
ENDBRANCH  50  51
ENDBRANCH  25  50
ENDBRANCH  22  25
ENDBRANCH  20  21
BRANCH  20  54
ATOM     54  CB  ASN A   9      15.963  48.151  46.918  0.00  0.00    +0.114 C 
BRANCH  54  55
ATOM     55  CG  ASN A   9      15.969  46.726  47.408  0.00  0.00    +0.222 C 
ATOM     56  OD1 ASN A   9      15.041  46.258  48.091  0.00  0.00    -0.275 OA
ATOM     57  ND2 ASN A   9      17.051  46.010  47.054  0.00  0.00    -0.329 N 
ATOM     58 HD21 ASN A   9      17.139  45.018  47.353  0.00  0.00    +0.145 HD
ATOM     59 HD22 ASN A   9      17.800  46.449  46.481  0.00  0.00    +0.145 HD
ENDBRANCH  54  55
ENDBRANCH  20  54
ENDBRANCH  17  20
ENDBRANCH  15  16
ENDBRANCH  13  15
ENDBRANCH  10  11
BRANCH  10  60
ATOM     60  CB  SER A   7      15.677  53.737  42.726  0.00  0.00    +0.166 C 
BRANCH  60  61
ATOM     61  OG  SER A   7      14.428  53.063  42.900  0.00  0.00    -0.380 OA
ATOM     62  H   SER A   7      13.756  53.451  42.285  0.00  0.00    +0.211 HD
ENDBRANCH  60  61
ENDBRANCH  10  60
ENDBRANCH   8  10
ENDBRANCH   5   6
ENDBRANCH   3   5
BRANCH   1  63
ATOM     63  CA  LEU A   5      19.719  56.603  48.336  0.00  0.00    +0.149 C 
BRANCH  63  65
ATOM     64  C   LYS A   4      21.770  57.773  48.637  0.00  0.00    +0.241 C 
ATOM     65  N   LEU A   5      20.454  57.741  48.778  0.00  0.00    -0.297 N 
ATOM     66  H   LEU A   5      19.957  58.546  49.211  0.00  0.00    +0.150 HD
ATOM     67  O   LYS A   4      22.400  56.806  48.161  0.00  0.00    -0.273 OA
BRANCH  64  68
ATOM     68  CA  LYS A   4      22.483  59.069  48.967  0.00  0.00    +0.149 C 
BRANCH  68  71
ATOM     69  C   SER A   3      24.278  58.096  50.315  0.00  0.00    +0.243 C 
ATOM     70  O   SER A   3      23.520  57.759  51.196  0.00  0.00    -0.273 OA
ATOM     71  N   LYS A   4      23.885  58.776  49.258  0.00  0.00    -0.297 N 
ATOM     72  H   LYS A   4      24.609  59.122  48.597  0.00  0.00    +0.150 HD
BRANCH  69  73
ATOM     73  CA  SER A   3      25.756  57.708  50.341  0.00  0.00    +0.178 C 
BRANCH  73  76
ATOM     74  C   ILE A   2      26.728  58.163  52.513  0.00  0.00    +0.241 C 
ATOM     75  O   ILE A   2      26.881  59.378  52.270  0.00  0.00    -0.273 OA
ATOM     76  N   SER A   3      26.133  57.309  51.685  0.00  0.00    -0.295 N 
ATOM     77  H   SER A   3      25.935  56.340  52.006  0.00  0.00    +0.150 HD
BRANCH  74  78
ATOM     78  CA  ILE A   2      27.266  57.598  53.838  0.00  0.00    +0.148 C 
BRANCH  78  81
ATOM     79  C   ARG A   1      29.643  57.142  54.164  0.00  0.00    +0.238 C 
ATOM     80  O   ARG A   1      29.425  55.985  54.514  0.00  0.00    -0.274 OA
ATOM     81  N   ILE A   2      28.673  58.023  53.937  0.00  0.00    -0.297 N 
ATOM     82  H   ILE A   2      28.912  59.029  53.827  0.00  0.00    +0.150 HD
BRANCH  79  83
ATOM     83  CA  ARG A   1      31.066  57.625  53.948  0.00  0.00    +0.145 C 
BRANCH  83  84
ATOM     84  N   ARG A   1      31.885  57.306  55.107  0.00  0.00    -0.238 NA
ATOM     85  H   ARG A   1      32.594  56.547  55.044  0.00  0.00    +0.142 HD
ENDBRANCH  83  84
BRANCH  83  86
ATOM     86  CB  ARG A   1      31.659  56.873  52.760  0.00  0.00    +0.030 C 
BRANCH  86  87
ATOM     87  CG  ARG A   1      30.894  57.058  51.442  0.00  0.00    +0.045 C 
BRANCH  87  88
ATOM     88  CD  ARG A   1      31.479  56.171  50.356  0.00  0.00    +0.174 C 
BRANCH  88  89
ATOM     89  NE  ARG A   1      32.811  56.636  49.961  0.00  0.00    -0.265 N 
ATOM     90  HE  ARG A   1      33.637  56.239  50.452  0.00  0.00    +0.259 HD
ATOM     91  CZ  ARG A   1      33.019  57.538  49.008  0.00  0.00    +0.342 C 
ATOM     92  NH2 ARG A   1      34.256  57.903  48.697  0.00  0.00    -0.292 N 
ATOM     93 HH21 ARG A   1      35.064  57.483  49.199  0.00  0.00    +0.255 HD
ATOM     94 HH22 ARG A   1      34.418  58.609  47.951  0.00  0.00    +0.255 HD
ATOM     95  NH1 ARG A   1      31.983  58.070  48.359  0.00  0.00    -0.292 N 
ATOM     96 HH11 ARG A   1      31.014  57.779  48.599  0.00  0.00    +0.255 HD
ATOM     97 HH12 ARG A   1      32.144  58.776  47.613  0.00  0.00    +0.255 HD
ENDBRANCH  88  89
ENDBRANCH  87  88
ENDBRANCH  86  87
ENDBRANCH  83  86
ENDBRANCH  79  83
ENDBRANCH  78  81
BRANCH  78  98
ATOM     98  CB  ILE A   2      26.406  58.142  54.998  0.00  0.00    +0.027 C 
ATOM     99  CG2 ILE A   2      24.910  57.777  54.790  0.00  0.00    +0.002 C 
BRANCH  98 100
ATOM    100  CG1 ILE A   2      26.876  57.593  56.339  0.00  0.00    +0.002 C 
ATOM    101  CD1 ILE A   2      26.131  58.176  57.569  0.00  0.00    +0.000 C 
ENDBRANCH  98 100
ENDBRANCH  78  98
ENDBRANCH  74  78
ENDBRANCH  73  76
BRANCH  73 102
ATOM    102  CB  SER A   3      25.958  56.560  49.342  0.00  0.00    +0.166 C 
BRANCH 102 103
ATOM    103  OG  SER A   3      27.341  56.200  49.348  0.00  0.00    -0.380 OA
ATOM    104  H   SER A   3      27.886  56.983  49.082  0.00  0.00    +0.211 HD
ENDBRANCH 102 103
ENDBRANCH  73 102
ENDBRANCH  69  73
ENDBRANCH  68  71
BRANCH  68 105
ATOM    105  CB  LYS A   4      22.398  59.973  47.727  0.00  0.00    +0.029 C 
BRANCH 105 106
ATOM    106  CG  LYS A   4      23.284  61.196  47.739  0.00  0.00    +0.000 C 
BRANCH 106 107
ATOM    107  CD  LYS A   4      22.958  62.075  46.520  0.00  0.00    -0.024 C 
BRANCH 107 108
ATOM    108  CE  LYS A   4      23.480  61.476  45.244  0.00  0.00    -0.086 C 
BRANCH 108 109
ATOM    109  NZ  LYS A   4      24.832  62.035  44.996  0.00  0.00    +0.380 N 
ATOM    110  HZ1 LYS A   4      25.458  61.792  45.790  0.00  0.00    -0.089 HD
ATOM    111  HZ2 LYS A   4      24.767  63.069  44.908  0.00  0.00    -0.089 HD
ATOM    112  HZ3 LYS A   4      25.215  61.635  44.116  0.00  0.00    -0.089 HD
ENDBRANCH 108 109
ENDBRANCH 107 108
ENDBRANCH 106 107
ENDBRANCH 105 106
ENDBRANCH  68 105
ENDBRANCH  64  68
ENDBRANCH  63  65
BRANCH  63 113
ATOM    113  CB  LEU A   5      18.297  56.599  48.903  0.00  0.00    +0.029 C 
BRANCH 113 114
ATOM    114  CG  LEU A   5      18.302  56.134  50.368  0.00  0.00    +0.002 C 
ATOM    115  CD2 LEU A   5      17.005  56.562  51.080  0.00  0.00    +0.000 C 
ATOM    116  CD1 LEU A   5      18.522  54.626  50.477  0.00  0.00    +0.000 C 
ENDBRANCH 113 114
ENDBRANCH  63 113
ENDBRANCH   1  63
TORSDOF 50
REMARK  Name = ../refined-set-2016/2xef/2xef_pocket.pdb
REMARK  421 active torsions:
REMARK  status: ('A' for Active; 'I' for Inactive)
REMARK    1  A    between atoms: _1  and  _3
REMARK    2  A    between atoms: _3  and  _4
REMARK    3  A    between atoms: _7  and  _9
REMARK    4  A    between atoms: _9  and  _10
REMARK    5  A    between atoms: _9  and  _12
REMARK    6  A    between atoms: _12  and  _13
REMARK    7  A    between atoms: _19  and  _21
REMARK    8  A    between atoms: _21  and  _22
REMARK    9  A    between atoms: _21  and  _24
REMARK   10  A    between atoms: _24  and  _25
REMARK   11  A    between atoms: _30  and  _31
REMARK   12  A    between atoms: _33  and  _35
REMARK   13  A    between atoms: _35  and  _36
REMARK   14  A    between atoms: _38  and  _40
REMARK   15  A    between atoms: _40  and  _41
REMARK   16  A    between atoms: _40  and  _43
REMARK   17  A    between atoms: _43  and  _44
REMARK   18  A    between atoms: _44  and  _45
REMARK   19  A    between atoms: _45  and  _46
REMARK   20  A    between atoms: _46  and  _47
REMARK   21  A    between atoms: _51  and  _53
REMARK   22  A    between atoms: _53  and  _54
REMARK   23  A    between atoms: _53  and  _56
REMARK   24  A    between atoms: _59  and  _61
REMARK   25  A    between atoms: _61  and  _62
REMARK   26  A    between atoms: _61  and  _64
REMARK   27  A    between atoms: _64  and  _65
REMARK   28  A    between atoms: _71  and  _73
REMARK   29  A    between atoms: _73  and  _74
REMARK   30  A    between atoms: _73  and  _76
REMARK   31  A    between atoms: _76  and  _77
REMARK   32  A    between atoms: _77  and  _78
REMARK   33  A    between atoms: _78  and  _79
REMARK   34  A    between atoms: _88  and  _90
REMARK   35  A    between atoms: _90  and  _91
REMARK   36  A    between atoms: _93  and  _95
REMARK   37  A    between atoms: _95  and  _96
REMARK   38  A    between atoms: _95  and  _98
REMARK   39  A    between atoms: _98  and  _99
REMARK   40  A    between atoms: _99  and  _100
REMARK   41  A    between atoms: _100  and  _101
REMARK   42  A    between atoms: _101  and  _102
REMARK   43  A    between atoms: _106  and  _108
REMARK   44  A    between atoms: _108  and  _109
REMARK   45  A    between atoms: _108  and  _111
REMARK   46  A    between atoms: _111  and  _112
REMARK   47  A    between atoms: _117  and  _118
REMARK   48  A    between atoms: _120  and  _122
REMARK   49  A    between atoms: _122  and  _123
REMARK   50  A    between atoms: _122  and  _125
REMARK   51  A    between atoms: _125  and  _126
REMARK   52  A    between atoms: _126  and  _127
REMARK   53  A    between atoms: _132  and  _134
REMARK   54  A    between atoms: _134  and  _135
REMARK   55  A    between atoms: _134  and  _137
REMARK   56  A    between atoms: _137  and  _138
REMARK   57  A    between atoms: _138  and  _139
REMARK   58  A    between atoms: _139  and  _140
REMARK   59  A    between atoms: _149  and  _151
REMARK   60  A    between atoms: _151  and  _152
REMARK   61  A    between atoms: _154  and  _156
REMARK   62  A    between atoms: _156  and  _157
REMARK   63  A    between atoms: _156  and  _159
REMARK   64  A    between atoms: _159  and  _160
REMARK   65  A    between atoms: _165  and  _167
REMARK   66  A    between atoms: _167  and  _168
REMARK   67  A    between atoms: _167  and  _170
REMARK   68  A    between atoms: _170  and  _171
REMARK   69  A    between atoms: _174  and  _176
REMARK   70  A    between atoms: _176  and  _177
REMARK   71  A    between atoms: _176  and  _179
REMARK   72  A    between atoms: _179  and  _180
REMARK   73  A    between atoms: _183  and  _185
REMARK   74  A    between atoms: _185  and  _186
REMARK   75  A    between atoms: _185  and  _188
REMARK   76  A    between atoms: _188  and  _189
REMARK   77  A    between atoms: _194  and  _196
REMARK   78  A    between atoms: _196  and  _197
REMARK   79  A    between atoms: _196  and  _199
REMARK   80  A    between atoms: _199  and  _200
REMARK   81  A    between atoms: _203  and  _205
REMARK   82  A    between atoms: _205  and  _206
REMARK   83  A    between atoms: _205  and  _208
REMARK   84  A    between atoms: _208  and  _209
REMARK   85  A    between atoms: _214  and  _216
REMARK   86  A    between atoms: _216  and  _217
REMARK   87  A    between atoms: _219  and  _221
REMARK   88  A    between atoms: _221  and  _222
REMARK   89  A    between atoms: _224  and  _226
REMARK   90  A    between atoms: _226  and  _227
REMARK   91  A    between atoms: _226  and  _229
REMARK   92  A    between atoms: _229  and  _230
REMARK   93  A    between atoms: _234  and  ZN_1038
REMARK   94  A    between atoms: _235  and  _237
REMARK   95  A    between atoms: _237  and  _238
REMARK   96  A    between atoms: _237  and  _240
REMARK   97  A    between atoms: _240  and  _241
REMARK   98  A    between atoms: _244  and  _246
REMARK   99  A    between atoms: _246  and  _247
REMARK  100  A    between atoms: _246  and  _249
REMARK  101  A    between atoms: _249  and  _250
REMARK  102  A    between atoms: _260  and  _262
REMARK  103  A    between atoms: _262  and  _263
REMARK  104  A    between atoms: _262  and  _265
REMARK  105  A    between atoms: _265  and  _266
REMARK  106  A    between atoms: _269  and  _271
REMARK  107  A    between atoms: _271  and  _272
REMARK  108  A    between atoms: _271  and  _274
REMARK  109  A    between atoms: _274  and  _275
REMARK  110  A    between atoms: _279  and  _280
REMARK  111  A    between atoms: _285  and  _287
REMARK  112  A    between atoms: _287  and  _288
REMARK  113  A    between atoms: _291  and  _293
REMARK  114  A    between atoms: _293  and  _294
REMARK  115  A    between atoms: _293  and  _296
REMARK  116  A    between atoms: _296  and  _297
REMARK  117  A    between atoms: _297  and  _298
REMARK  118  A    between atoms: _301  and  _303
REMARK  119  A    between atoms: _303  and  _304
REMARK  120  A    between atoms: _303  and  _306
REMARK  121  A    between atoms: _306  and  _307
REMARK  122  A    between atoms: _307  and  _308
REMARK  123  A    between atoms: _308  and  _310
REMARK  124  A    between atoms: _310  and  ZN_1037
REMARK  125  A    between atoms: _311  and  _313
REMARK  126  A    between atoms: _313  and  _314
REMARK  127  A    between atoms: _313  and  _316
REMARK  128  A    between atoms: _316  and  _317
REMARK  129  A    between atoms: _323  and  _325
REMARK  130  A    between atoms: _325  and  _326
REMARK  131  A    between atoms: _328  and  _330
REMARK  132  A    between atoms: _330  and  _331
REMARK  133  A    between atoms: _330  and  _333
REMARK  134  A    between atoms: _333  and  _334
REMARK  135  A    between atoms: _337  and  _339
REMARK  136  A    between atoms: _339  and  _340
REMARK  137  A    between atoms: _339  and  _342
REMARK  138  A    between atoms: _342  and  _343
REMARK  139  A    between atoms: _346  and  _348
REMARK  140  A    between atoms: _348  and  _349
REMARK  141  A    between atoms: _348  and  _351
REMARK  142  A    between atoms: _351  and  _352
REMARK  143  A    between atoms: _357  and  _359
REMARK  144  A    between atoms: _359  and  _360
REMARK  145  A    between atoms: _359  and  _362
REMARK  146  A    between atoms: _362  and  _363
REMARK  147  A    between atoms: _363  and  _365
REMARK  148  A    between atoms: _365  and  ZN_1038
REMARK  149  A    between atoms: _366  and  _368
REMARK  150  A    between atoms: _368  and  _369
REMARK  151  A    between atoms: _368  and  _371
REMARK  152  A    between atoms: _371  and  _372
REMARK  153  A    between atoms: _374  and  _376
REMARK  154  A    between atoms: _376  and  _377
REMARK  155  A    between atoms: _376  and  _379
REMARK  156  A    between atoms: _379  and  _380
REMARK  157  A    between atoms: _382  and  _384
REMARK  158  A    between atoms: _384  and  _385
REMARK  159  A    between atoms: _384  and  _387
REMARK  160  A    between atoms: _387  and  _388
REMARK  161  A    between atoms: _391  and  _393
REMARK  162  A    between atoms: _393  and  _394
REMARK  163  A    between atoms: _393  and  _396
REMARK  164  A    between atoms: _396  and  _397
REMARK  165  A    between atoms: _397  and  _398
REMARK  166  A    between atoms: _401  and  _403
REMARK  167  A    between atoms: _403  and  _404
REMARK  168  A    between atoms: _403  and  _406
REMARK  169  A    between atoms: _406  and  _407
REMARK  170  A    between atoms: _412  and  _413
REMARK  171  A    between atoms: _415  and  _417
REMARK  172  A    between atoms: _417  and  _418
REMARK  173  A    between atoms: _417  and  _420
REMARK  174  A    between atoms: _420  and  _421
REMARK  175  A    between atoms: _424  and  _426
REMARK  176  A    between atoms: _426  and  _427
REMARK  177  A    between atoms: _426  and  _429
REMARK  178  A    between atoms: _429  and  _430
REMARK  179  A    between atoms: _433  and  _435
REMARK  180  A    between atoms: _435  and  _436
REMARK  181  A    between atoms: _435  and  _438
REMARK  182  A    between atoms: _438  and  _439
REMARK  183  A    between atoms: _439  and  _440
REMARK  184  A    between atoms: _440  and  _441
REMARK  185  A    between atoms: _450  and  _452
REMARK  186  A    between atoms: _452  and  _453
REMARK  187  A    between atoms: _452  and  _455
REMARK  188  A    between atoms: _458  and  _460
REMARK  189  A    between atoms: _460  and  _461
REMARK  190  A    between atoms: _460  and  _463
REMARK  191  A    between atoms: _463  and  _464
REMARK  192  A    between atoms: _467  and  _469
REMARK  193  A    between atoms: _469  and  _470
REMARK  194  A    between atoms: _469  and  _472
REMARK  195  A    between atoms: _474  and  _476
REMARK  196  A    between atoms: _476  and  _477
REMARK  197  A    between atoms: _476  and  _479
REMARK  198  A    between atoms: _479  and  _480
REMARK  199  A    between atoms: _490  and  _492
REMARK  200  A    between atoms: _492  and  _493
REMARK  201  A    between atoms: _492  and  _495
REMARK  202  A    between atoms: _495  and  _496
REMARK  203  A    between atoms: _496  and  _497
REMARK  204  A    between atoms: _497  and  _498
REMARK  205  A    between atoms: _498  and  _499
REMARK  206  A    between atoms: _503  and  _505
REMARK  207  A    between atoms: _505  and  _506
REMARK  208  A    between atoms: _505  and  _508
REMARK  209  A    between atoms: _508  and  _509
REMARK  210  A    between atoms: _512  and  _513
REMARK  211  A    between atoms: _519  and  _520
REMARK  212  A    between atoms: _525  and  _527
REMARK  213  A    between atoms: _527  and  _528
REMARK  214  A    between atoms: _527  and  _530
REMARK  215  A    between atoms: _530  and  _531
REMARK  216  A    between atoms: _531  and  _532
REMARK  217  A    between atoms: _535  and  _537
REMARK  218  A    between atoms: _537  and  _538
REMARK  219  A    between atoms: _537  and  _540
REMARK  220  A    between atoms: _540  and  _541
REMARK  221  A    between atoms: _541  and  _542
REMARK  222  A    between atoms: _542  and  _543
REMARK  223  A    between atoms: _552  and  _554
REMARK  224  A    between atoms: _554  and  _555
REMARK  225  A    between atoms: _554  and  _557
REMARK  226  A    between atoms: _557  and  _558
REMARK  227  A    between atoms: _561  and  _563
REMARK  228  A    between atoms: _563  and  _564
REMARK  229  A    between atoms: _563  and  _566
REMARK  230  A    between atoms: _566  and  _567
REMARK  231  A    between atoms: _569  and  _571
REMARK  232  A    between atoms: _571  and  _572
REMARK  233  A    between atoms: _571  and  _574
REMARK  234  A    between atoms: _574  and  _575
REMARK  235  A    between atoms: _575  and  _576
REMARK  236  A    between atoms: _576  and  _577
REMARK  237  A    between atoms: _577  and  _578
REMARK  238  A    between atoms: _582  and  _584
REMARK  239  A    between atoms: _584  and  _585
REMARK  240  A    between atoms: _584  and  _587
REMARK  241  A    between atoms: _587  and  _588
REMARK  242  A    between atoms: _591  and  _593
REMARK  243  A    between atoms: _593  and  _594
REMARK  244  A    between atoms: _596  and  _598
REMARK  245  A    between atoms: _598  and  _599
REMARK  246  A    between atoms: _598  and  _601
REMARK  247  A    between atoms: _601  and  _602
REMARK  248  A    between atoms: _604  and  _606
REMARK  249  A    between atoms: _606  and  _607
REMARK  250  A    between atoms: _609  and  _611
REMARK  251  A    between atoms: _611  and  _612
REMARK  252  A    between atoms: _611  and  _614
REMARK  253  A    between atoms: _614  and  _615
REMARK  254  A    between atoms: _620  and  _622
REMARK  255  A    between atoms: _622  and  _623
REMARK  256  A    between atoms: _622  and  _625
REMARK  257  A    between atoms: _625  and  _626
REMARK  258  A    between atoms: _629  and  _631
REMARK  259  A    between atoms: _631  and  _632
REMARK  260  A    between atoms: _631  and  _634
REMARK  261  A    between atoms: _634  and  _635
REMARK  262  A    between atoms: _641  and  _643
REMARK  263  A    between atoms: _643  and  _644
REMARK  264  A    between atoms: _643  and  _646
REMARK  265  A    between atoms: _646  and  _647
REMARK  266  A    between atoms: _647  and  _648
REMARK  267  A    between atoms: _651  and  _653
REMARK  268  A    between atoms: _653  and  _654
REMARK  269  A    between atoms: _653  and  _656
REMARK  270  A    between atoms: _656  and  _657
REMARK  271  A    between atoms: _657  and  _658
REMARK  272  A    between atoms: _663  and  _665
REMARK  273  A    between atoms: _665  and  _666
REMARK  274  A    between atoms: _665  and  _668
REMARK  275  A    between atoms: _668  and  _669
REMARK  276  A    between atoms: _669  and  _670
REMARK  277  A    between atoms: _670  and  _671
REMARK  278  A    between atoms: _680  and  _682
REMARK  279  A    between atoms: _682  and  _683
REMARK  280  A    between atoms: _682  and  _685
REMARK  281  A    between atoms: _685  and  _686
REMARK  282  A    between atoms: _686  and  _687
REMARK  283  A    between atoms: _687  and  _688
REMARK  284  A    between atoms: _697  and  _699
REMARK  285  A    between atoms: _699  and  _700
REMARK  286  A    between atoms: _699  and  _702
REMARK  287  A    between atoms: _702  and  _703
REMARK  288  A    between atoms: _708  and  _709
REMARK  289  A    between atoms: _711  and  _713
REMARK  290  A    between atoms: _713  and  _714
REMARK  291  A    between atoms: _713  and  _716
REMARK  292  A    between atoms: _716  and  _717
REMARK  293  A    between atoms: _720  and  _722
REMARK  294  A    between atoms: _722  and  _723
REMARK  295  A    between atoms: _722  and  _725
REMARK  296  A    between atoms: _725  and  _726
REMARK  297  A    between atoms: _726  and  _727
REMARK  298  A    between atoms: _727  and  _728
REMARK  299  A    between atoms: _728  and  _729
REMARK  300  A    between atoms: _733  and  _735
REMARK  301  A    between atoms: _735  and  _736
REMARK  302  A    between atoms: _735  and  _738
REMARK  303  A    between atoms: _738  and  _739
REMARK  304  A    between atoms: _744  and  _746
REMARK  305  A    between atoms: _746  and  _747
REMARK  306  A    between atoms: _746  and  _749
REMARK  307  A    between atoms: _749  and  _750
REMARK  308  A    between atoms: _760  and  _762
REMARK  309  A    between atoms: _762  and  _763
REMARK  310  A    between atoms: _762  and  _765
REMARK  311  A    between atoms: _765  and  _766
REMARK  312  A    between atoms: _766  and  _767
REMARK  313  A    between atoms: _770  and  _772
REMARK  314  A    between atoms: _772  and  _773
REMARK  315  A    between atoms: _772  and  _775
REMARK  316  A    between atoms: _775  and  _776
REMARK  317  A    between atoms: _779  and  _781
REMARK  318  A    between atoms: _781  and  _782
REMARK  319  A    between atoms: _781  and  _784
REMARK  320  A    between atoms: _784  and  _785
REMARK  321  A    between atoms: _790  and  _792
REMARK  322  A    between atoms: _792  and  _793
REMARK  323  A    between atoms: _792  and  _795
REMARK  324  A    between atoms: _795  and  _796
REMARK  325  A    between atoms: _802  and  _804
REMARK  326  A    between atoms: _804  and  _805
REMARK  327  A    between atoms: _804  and  _807
REMARK  328  A    between atoms: _807  and  _808
REMARK  329  A    between atoms: _810  and  _812
REMARK  330  A    between atoms: _812  and  _813
REMARK  331  A    between atoms: _815  and  _817
REMARK  332  A    between atoms: _817  and  _818
REMARK  333  A    between atoms: _817  and  _820
REMARK  334  A    between atoms: _820  and  _821
REMARK  335  A    between atoms: _826  and  _827
REMARK  336  A    between atoms: _829  and  _831
REMARK  337  A    between atoms: _831  and  _832
REMARK  338  A    between atoms: _831  and  _834
REMARK  339  A    between atoms: _834  and  _835
REMARK  340  A    between atoms: _840  and  _841
REMARK  341  A    between atoms: _843  and  _845
REMARK  342  A    between atoms: _845  and  _846
REMARK  343  A    between atoms: _845  and  _848
REMARK  344  A    between atoms: _848  and  _849
REMARK  345  A    between atoms: _853  and  ZN_1037
REMARK  346  A    between atoms: _854  and  _856
REMARK  347  A    between atoms: _856  and  _857
REMARK  348  A    between atoms: _856  and  _859
REMARK  349  A    between atoms: _859  and  _860
REMARK  350  A    between atoms: _860  and  _861
REMARK  351  A    between atoms: _864  and  _866
REMARK  352  A    between atoms: _866  and  _867
REMARK  353  A    between atoms: _866  and  _869
REMARK  354  A    between atoms: _869  and  _870
REMARK  355  A    between atoms: _870  and  _871
REMARK  356  A    between atoms: _871  and  _872
REMARK  357  A    between atoms: _881  and  _883
REMARK  358  A    between atoms: _883  and  _884
REMARK  359  A    between atoms: _883  and  _886
REMARK  360  A    between atoms: _886  and  _887
REMARK  361  A    between atoms: _887  and  _888
REMARK  362  A    between atoms: _888  and  _889
REMARK  363  A    between atoms: _889  and  _890
REMARK  364  A    between atoms: _894  and  _896
REMARK  365  A    between atoms: _896  and  _897
REMARK  366  A    between atoms: _896  and  _899
REMARK  367  A    between atoms: _899  and  _900
REMARK  368  A    between atoms: _905  and  _906
REMARK  369  A    between atoms: _908  and  _910
REMARK  370  A    between atoms: _910  and  _911
REMARK  371  A    between atoms: _910  and  _913
REMARK  372  A    between atoms: _913  and  _914
REMARK  373  A    between atoms: _914  and  _915
REMARK  374  A    between atoms: _915  and  _916
REMARK  375  A    between atoms: _916  and  _917
REMARK  376  A    between atoms: _921  and  _923
REMARK  377  A    between atoms: _923  and  _924
REMARK  378  A    between atoms: _923  and  _926
REMARK  379  A    between atoms: _926  and  _927
REMARK  380  A    between atoms: _932  and  _933
REMARK  381  A    between atoms: _935  and  _937
REMARK  382  A    between atoms: _937  and  _938
REMARK  383  A    between atoms: _937  and  _940
REMARK  384  A    between atoms: _940  and  _941
REMARK  385  A    between atoms: _946  and  _947
REMARK  386  A    between atoms: _949  and  _951
REMARK  387  A    between atoms: _951  and  _952
REMARK  388  A    between atoms: _956  and  _957
REMARK  389  A    between atoms: _962  and  _964
REMARK  390  A    between atoms: _964  and  _965
REMARK  391  A    between atoms: _964  and  _967
REMARK  392  A    between atoms: _967  and  _968
REMARK  393  A    between atoms: _970  and  _972
REMARK  394  A    between atoms: _972  and  _973
REMARK  395  A    between atoms: _972  and  _975
REMARK  396  A    between atoms: _975  and  _976
REMARK  397  A    between atoms: _981  and  _983
REMARK  398  A    between atoms: _983  and  _984
REMARK  399  A    between atoms: _983  and  _986
REMARK  400  A    between atoms: _986  and  _987
REMARK  401  A    between atoms: _987  and  _988
REMARK  402  A    between atoms: _988  and  _989
REMARK  403  A    between atoms: _989  and  _990
REMARK  404  A    between atoms: _994  and  _996
REMARK  405  A    between atoms: _996  and  _997
REMARK  406  A    between atoms: _996  and  _999
REMARK  407  A    between atoms: _999  and  _1000
REMARK  408  A    between atoms: _1005  and  _1006
REMARK  409  A    between atoms: _1008  and  _1010
REMARK  410  A    between atoms: _1010  and  _1011
REMARK  411  A    between atoms: _1014  and  _1016
REMARK  412  A    between atoms: _1016  and  _1017
REMARK  413  A    between atoms: _1019  and  _1021
REMARK  414  A    between atoms: _1021  and  _1022
REMARK  415  A    between atoms: _1021  and  _1024
REMARK  416  A    between atoms: _1024  and  _1025
REMARK  417  A    between atoms: _1025  and  _1026
REMARK  418  A    between atoms: _1029  and  _1031
REMARK  419  A    between atoms: _1031  and  _1032
REMARK  420  A    between atoms: _1031  and  _1034
REMARK  421  A    between atoms: _1034  and  _1035
REMARK                            x       y       z     vdW  Elec       q    Type
REMARK                         _______ _______ _______ _____ _____    ______ ____
ROOT
ATOM      1  CB  GLN A   1      11.643  58.680  45.220  0.00  0.00    +0.035 C 
ENDROOT
BRANCH   1   2
ATOM      2  CA  GLN A   1      10.863  59.166  46.463  0.00  0.00    +0.134 C 
BRANCH   2   3
ATOM      3  N   GLN A   1      11.014  58.216  47.567  0.00  0.00    -0.239 NA
ATOM      4  H   GLN A   1      11.231  57.214  47.394  0.00  0.00    +0.142 HD
ENDBRANCH   2   3
BRANCH   2   5
ATOM      5  C   GLN A   1       9.398  59.455  46.107  0.00  0.00    +0.224 C 
ATOM      6  O   GLN A   1       9.131  60.517  45.492  0.00  0.00    -0.287 OA
ENDBRANCH   2   5
ENDBRANCH   1   2
BRANCH   1   7
ATOM      7  CG  GLN A   1      13.244  58.877  45.360  0.00  0.00    +0.087 C 
BRANCH   7   8
ATOM      8  CD  GLN A   1      13.881  57.601  45.692  0.00  0.00    +0.219 C 
ATOM      9  OE1 GLN A   1      13.226  56.689  46.277  0.00  0.00    -0.275 OA
ATOM     10  NE2 GLN A   1      15.226  57.522  45.479  0.00  0.00    -0.329 N 
ATOM     11 HE21 GLN A   1      15.756  56.687  45.802  0.00  0.00    +0.145 HD
ATOM     12 HE22 GLN A   1      15.722  58.297  44.994  0.00  0.00    +0.145 HD
ENDBRANCH   7   8
ENDBRANCH   1   7
TORSDOF 5
REMARK  Name = ../refined-set-2016/2xef/2xef_pocket.pdb
REMARK  421 active torsions:
REMARK  status: ('A' for Active; 'I' for Inactive)
REMARK    1  A    between atoms: _1  and  _3
REMARK    2  A    between atoms: _3  and  _4
REMARK    3  A    between atoms: _7  and  _9
REMARK    4  A    between atoms: _9  and  _10
REMARK    5  A    between atoms: _9  and  _12
REMARK    6  A    between atoms: _12  and  _13
REMARK    7  A    between atoms: _19  and  _21
REMARK    8  A    between atoms: _21  and  _22
REMARK    9  A    between atoms: _21  and  _24
REMARK   10  A    between atoms: _24  and  _25
REMARK   11  A    between atoms: _30  and  _31
REMARK   12  A    between atoms: _33  and  _35
REMARK   13  A    between atoms: _35  and  _36
REMARK   14  A    between atoms: _38  and  _40
REMARK   15  A    between atoms: _40  and  _41
REMARK   16  A    between atoms: _40  and  _43
REMARK   17  A    between atoms: _43  and  _44
REMARK   18  A    between atoms: _44  and  _45
REMARK   19  A    between atoms: _45  and  _46
REMARK   20  A    between atoms: _46  and  _47
REMARK   21  A    between atoms: _51  and  _53
REMARK   22  A    between atoms: _53  and  _54
REMARK   23  A    between atoms: _53  and  _56
REMARK   24  A    between atoms: _59  and  _61
REMARK   25  A    between atoms: _61  and  _62
REMARK   26  A    between atoms: _61  and  _64
REMARK   27  A    between atoms: _64  and  _65
REMARK   28  A    between atoms: _71  and  _73
REMARK   29  A    between atoms: _73  and  _74
REMARK   30  A    between atoms: _73  and  _76
REMARK   31  A    between atoms: _76  and  _77
REMARK   32  A    between atoms: _77  and  _78
REMARK   33  A    between atoms: _78  and  _79
REMARK   34  A    between atoms: _88  and  _90
REMARK   35  A    between atoms: _90  and  _91
REMARK   36  A    between atoms: _93  and  _95
REMARK   37  A    between atoms: _95  and  _96
REMARK   38  A    between atoms: _95  and  _98
REMARK   39  A    between atoms: _98  and  _99
REMARK   40  A    between atoms: _99  and  _100
REMARK   41  A    between atoms: _100  and  _101
REMARK   42  A    between atoms: _101  and  _102
REMARK   43  A    between atoms: _106  and  _108
REMARK   44  A    between atoms: _108  and  _109
REMARK   45  A    between atoms: _108  and  _111
REMARK   46  A    between atoms: _111  and  _112
REMARK   47  A    between atoms: _117  and  _118
REMARK   48  A    between atoms: _120  and  _122
REMARK   49  A    between atoms: _122  and  _123
REMARK   50  A    between atoms: _122  and  _125
REMARK   51  A    between atoms: _125  and  _126
REMARK   52  A    between atoms: _126  and  _127
REMARK   53  A    between atoms: _132  and  _134
REMARK   54  A    between atoms: _134  and  _135
REMARK   55  A    between atoms: _134  and  _137
REMARK   56  A    between atoms: _137  and  _138
REMARK   57  A    between atoms: _138  and  _139
REMARK   58  A    between atoms: _139  and  _140
REMARK   59  A    between atoms: _149  and  _151
REMARK   60  A    between atoms: _151  and  _152
REMARK   61  A    between atoms: _154  and  _156
REMARK   62  A    between atoms: _156  and  _157
REMARK   63  A    between atoms: _156  and  _159
REMARK   64  A    between atoms: _159  and  _160
REMARK   65  A    between atoms: _165  and  _167
REMARK   66  A    between atoms: _167  and  _168
REMARK   67  A    between atoms: _167  and  _170
REMARK   68  A    between atoms: _170  and  _171
REMARK   69  A    between atoms: _174  and  _176
REMARK   70  A    between atoms: _176  and  _177
REMARK   71  A    between atoms: _176  and  _179
REMARK   72  A    between atoms: _179  and  _180
REMARK   73  A    between atoms: _183  and  _185
REMARK   74  A    between atoms: _185  and  _186
REMARK   75  A    between atoms: _185  and  _188
REMARK   76  A    between atoms: _188  and  _189
REMARK   77  A    between atoms: _194  and  _196
REMARK   78  A    between atoms: _196  and  _197
REMARK   79  A    between atoms: _196  and  _199
REMARK   80  A    between atoms: _199  and  _200
REMARK   81  A    between atoms: _203  and  _205
REMARK   82  A    between atoms: _205  and  _206
REMARK   83  A    between atoms: _205  and  _208
REMARK   84  A    between atoms: _208  and  _209
REMARK   85  A    between atoms: _214  and  _216
REMARK   86  A    between atoms: _216  and  _217
REMARK   87  A    between atoms: _219  and  _221
REMARK   88  A    between atoms: _221  and  _222
REMARK   89  A    between atoms: _224  and  _226
REMARK   90  A    between atoms: _226  and  _227
REMARK   91  A    between atoms: _226  and  _229
REMARK   92  A    between atoms: _229  and  _230
REMARK   93  A    between atoms: _234  and  ZN_1038
REMARK   94  A    between atoms: _235  and  _237
REMARK   95  A    between atoms: _237  and  _238
REMARK   96  A    between atoms: _237  and  _240
REMARK   97  A    between atoms: _240  and  _241
REMARK   98  A    between atoms: _244  and  _246
REMARK   99  A    between atoms: _246  and  _247
REMARK  100  A    between atoms: _246  and  _249
REMARK  101  A    between atoms: _249  and  _250
REMARK  102  A    between atoms: _260  and  _262
REMARK  103  A    between atoms: _262  and  _263
REMARK  104  A    between atoms: _262  and  _265
REMARK  105  A    between atoms: _265  and  _266
REMARK  106  A    between atoms: _269  and  _271
REMARK  107  A    between atoms: _271  and  _272
REMARK  108  A    between atoms: _271  and  _274
REMARK  109  A    between atoms: _274  and  _275
REMARK  110  A    between atoms: _279  and  _280
REMARK  111  A    between atoms: _285  and  _287
REMARK  112  A    between atoms: _287  and  _288
REMARK  113  A    between atoms: _291  and  _293
REMARK  114  A    between atoms: _293  and  _294
REMARK  115  A    between atoms: _293  and  _296
REMARK  116  A    between atoms: _296  and  _297
REMARK  117  A    between atoms: _297  and  _298
REMARK  118  A    between atoms: _301  and  _303
REMARK  119  A    between atoms: _303  and  _304
REMARK  120  A    between atoms: _303  and  _306
REMARK  121  A    between atoms: _306  and  _307
REMARK  122  A    between atoms: _307  and  _308
REMARK  123  A    between atoms: _308  and  _310
REMARK  124  A    between atoms: _310  and  ZN_1037
REMARK  125  A    between atoms: _311  and  _313
REMARK  126  A    between atoms: _313  and  _314
REMARK  127  A    between atoms: _313  and  _316
REMARK  128  A    between atoms: _316  and  _317
REMARK  129  A    between atoms: _323  and  _325
REMARK  130  A    between atoms: _325  and  _326
REMARK  131  A    between atoms: _328  and  _330
REMARK  132  A    between atoms: _330  and  _331
REMARK  133  A    between atoms: _330  and  _333
REMARK  134  A    between atoms: _333  and  _334
REMARK  135  A    between atoms: _337  and  _339
REMARK  136  A    between atoms: _339  and  _340
REMARK  137  A    between atoms: _339  and  _342
REMARK  138  A    between atoms: _342  and  _343
REMARK  139  A    between atoms: _346  and  _348
REMARK  140  A    between atoms: _348  and  _349
REMARK  141  A    between atoms: _348  and  _351
REMARK  142  A    between atoms: _351  and  _352
REMARK  143  A    between atoms: _357  and  _359
REMARK  144  A    between atoms: _359  and  _360
REMARK  145  A    between atoms: _359  and  _362
REMARK  146  A    between atoms: _362  and  _363
REMARK  147  A    between atoms: _363  and  _365
REMARK  148  A    between atoms: _365  and  ZN_1038
REMARK  149  A    between atoms: _366  and  _368
REMARK  150  A    between atoms: _368  and  _369
REMARK  151  A    between atoms: _368  and  _371
REMARK  152  A    between atoms: _371  and  _372
REMARK  153  A    between atoms: _374  and  _376
REMARK  154  A    between atoms: _376  and  _377
REMARK  155  A    between atoms: _376  and  _379
REMARK  156  A    between atoms: _379  and  _380
REMARK  157  A    between atoms: _382  and  _384
REMARK  158  A    between atoms: _384  and  _385
REMARK  159  A    between atoms: _384  and  _387
REMARK  160  A    between atoms: _387  and  _388
REMARK  161  A    between atoms: _391  and  _393
REMARK  162  A    between atoms: _393  and  _394
REMARK  163  A    between atoms: _393  and  _396
REMARK  164  A    between atoms: _396  and  _397
REMARK  165  A    between atoms: _397  and  _398
REMARK  166  A    between atoms: _401  and  _403
REMARK  167  A    between atoms: _403  and  _404
REMARK  168  A    between atoms: _403  and  _406
REMARK  169  A    between atoms: _406  and  _407
REMARK  170  A    between atoms: _412  and  _413
REMARK  171  A    between atoms: _415  and  _417
REMARK  172  A    between atoms: _417  and  _418
REMARK  173  A    between atoms: _417  and  _420
REMARK  174  A    between atoms: _420  and  _421
REMARK  175  A    between atoms: _424  and  _426
REMARK  176  A    between atoms: _426  and  _427
REMARK  177  A    between atoms: _426  and  _429
REMARK  178  A    between atoms: _429  and  _430
REMARK  179  A    between atoms: _433  and  _435
REMARK  180  A    between atoms: _435  and  _436
REMARK  181  A    between atoms: _435  and  _438
REMARK  182  A    between atoms: _438  and  _439
REMARK  183  A    between atoms: _439  and  _440
REMARK  184  A    between atoms: _440  and  _441
REMARK  185  A    between atoms: _450  and  _452
REMARK  186  A    between atoms: _452  and  _453
REMARK  187  A    between atoms: _452  and  _455
REMARK  188  A    between atoms: _458  and  _460
REMARK  189  A    between atoms: _460  and  _461
REMARK  190  A    between atoms: _460  and  _463
REMARK  191  A    between atoms: _463  and  _464
REMARK  192  A    between atoms: _467  and  _469
REMARK  193  A    between atoms: _469  and  _470
REMARK  194  A    between atoms: _469  and  _472
REMARK  195  A    between atoms: _474  and  _476
REMARK  196  A    between atoms: _476  and  _477
REMARK  197  A    between atoms: _476  and  _479
REMARK  198  A    between atoms: _479  and  _480
REMARK  199  A    between atoms: _490  and  _492
REMARK  200  A    between atoms: _492  and  _493
REMARK  201  A    between atoms: _492  and  _495
REMARK  202  A    between atoms: _495  and  _496
REMARK  203  A    between atoms: _496  and  _497
REMARK  204  A    between atoms: _497  and  _498
REMARK  205  A    between atoms: _498  and  _499
REMARK  206  A    between atoms: _503  and  _505
REMARK  207  A    between atoms: _505  and  _506
REMARK  208  A    between atoms: _505  and  _508
REMARK  209  A    between atoms: _508  and  _509
REMARK  210  A    between atoms: _512  and  _513
REMARK  211  A    between atoms: _519  and  _520
REMARK  212  A    between atoms: _525  and  _527
REMARK  213  A    between atoms: _527  and  _528
REMARK  214  A    between atoms: _527  and  _530
REMARK  215  A    between atoms: _530  and  _531
REMARK  216  A    between atoms: _531  and  _532
REMARK  217  A    between atoms: _535  and  _537
REMARK  218  A    between atoms: _537  and  _538
REMARK  219  A    between atoms: _537  and  _540
REMARK  220  A    between atoms: _540  and  _541
REMARK  221  A    between atoms: _541  and  _542
REMARK  222  A    between atoms: _542  and  _543
REMARK  223  A    between atoms: _552  and  _554
REMARK  224  A    between atoms: _554  and  _555
REMARK  225  A    between atoms: _554  and  _557
REMARK  226  A    between atoms: _557  and  _558
REMARK  227  A    between atoms: _561  and  _563
REMARK  228  A    between atoms: _563  and  _564
REMARK  229  A    between atoms: _563  and  _566
REMARK  230  A    between atoms: _566  and  _567
REMARK  231  A    between atoms: _569  and  _571
REMARK  232  A    between atoms: _571  and  _572
REMARK  233  A    between atoms: _571  and  _574
REMARK  234  A    between atoms: _574  and  _575
REMARK  235  A    between atoms: _575  and  _576
REMARK  236  A    between atoms: _576  and  _577
REMARK  237  A    between atoms: _577  and  _578
REMARK  238  A    between atoms: _582  and  _584
REMARK  239  A    between atoms: _584  and  _585
REMARK  240  A    between atoms: _584  and  _587
REMARK  241  A    between atoms: _587  and  _588
REMARK  242  A    between atoms: _591  and  _593
REMARK  243  A    between atoms: _593  and  _594
REMARK  244  A    between atoms: _596  and  _598
REMARK  245  A    between atoms: _598  and  _599
REMARK  246  A    between atoms: _598  and  _601
REMARK  247  A    between atoms: _601  and  _602
REMARK  248  A    between atoms: _604  and  _606
REMARK  249  A    between atoms: _606  and  _607
REMARK  250  A    between atoms: _609  and  _611
REMARK  251  A    between atoms: _611  and  _612
REMARK  252  A    between atoms: _611  and  _614
REMARK  253  A    between atoms: _614  and  _615
REMARK  254  A    between atoms: _620  and  _622
REMARK  255  A    between atoms: _622  and  _623
REMARK  256  A    between atoms: _622  and  _625
REMARK  257  A    between atoms: _625  and  _626
REMARK  258  A    between atoms: _629  and  _631
REMARK  259  A    between atoms: _631  and  _632
REMARK  260  A    between atoms: _631  and  _634
REMARK  261  A    between atoms: _634  and  _635
REMARK  262  A    between atoms: _641  and  _643
REMARK  263  A    between atoms: _643  and  _644
REMARK  264  A    between atoms: _643  and  _646
REMARK  265  A    between atoms: _646  and  _647
REMARK  266  A    between atoms: _647  and  _648
REMARK  267  A    between atoms: _651  and  _653
REMARK  268  A    between atoms: _653  and  _654
REMARK  269  A    between atoms: _653  and  _656
REMARK  270  A    between atoms: _656  and  _657
REMARK  271  A    between atoms: _657  and  _658
REMARK  272  A    between atoms: _663  and  _665
REMARK  273  A    between atoms: _665  and  _666
REMARK  274  A    between atoms: _665  and  _668
REMARK  275  A    between atoms: _668  and  _669
REMARK  276  A    between atoms: _669  and  _670
REMARK  277  A    between atoms: _670  and  _671
REMARK  278  A    between atoms: _680  and  _682
REMARK  279  A    between atoms: _682  and  _683
REMARK  280  A    between atoms: _682  and  _685
REMARK  281  A    between atoms: _685  and  _686
REMARK  282  A    between atoms: _686  and  _687
REMARK  283  A    between atoms: _687  and  _688
REMARK  284  A    between atoms: _697  and  _699
REMARK  285  A    between atoms: _699  and  _700
REMARK  286  A    between atoms: _699  and  _702
REMARK  287  A    between atoms: _702  and  _703
REMARK  288  A    between atoms: _708  and  _709
REMARK  289  A    between atoms: _711  and  _713
REMARK  290  A    between atoms: _713  and  _714
REMARK  291  A    between atoms: _713  and  _716
REMARK  292  A    between atoms: _716  and  _717
REMARK  293  A    between atoms: _720  and  _722
REMARK  294  A    between atoms: _722  and  _723
REMARK  295  A    between atoms: _722  and  _725
REMARK  296  A    between atoms: _725  and  _726
REMARK  297  A    between atoms: _726  and  _727
REMARK  298  A    between atoms: _727  and  _728
REMARK  299  A    between atoms: _728  and  _729
REMARK  300  A    between atoms: _733  and  _735
REMARK  301  A    between atoms: _735  and  _736
REMARK  302  A    between atoms: _735  and  _738
REMARK  303  A    between atoms: _738  and  _739
REMARK  304  A    between atoms: _744  and  _746
REMARK  305  A    between atoms: _746  and  _747
REMARK  306  A    between atoms: _746  and  _749
REMARK  307  A    between atoms: _749  and  _750
REMARK  308  A    between atoms: _760  and  _762
REMARK  309  A    between atoms: _762  and  _763
REMARK  310  A    between atoms: _762  and  _765
REMARK  311  A    between atoms: _765  and  _766
REMARK  312  A    between atoms: _766  and  _767
REMARK  313  A    between atoms: _770  and  _772
REMARK  314  A    between atoms: _772  and  _773
REMARK  315  A    between atoms: _772  and  _775
REMARK  316  A    between atoms: _775  and  _776
REMARK  317  A    between atoms: _779  and  _781
REMARK  318  A    between atoms: _781  and  _782
REMARK  319  A    between atoms: _781  and  _784
REMARK  320  A    between atoms: _784  and  _785
REMARK  321  A    between atoms: _790  and  _792
REMARK  322  A    between atoms: _792  and  _793
REMARK  323  A    between atoms: _792  and  _795
REMARK  324  A    between atoms: _795  and  _796
REMARK  325  A    between atoms: _802  and  _804
REMARK  326  A    between atoms: _804  and  _805
REMARK  327  A    between atoms: _804  and  _807
REMARK  328  A    between atoms: _807  and  _808
REMARK  329  A    between atoms: _810  and  _812
REMARK  330  A    between atoms: _812  and  _813
REMARK  331  A    between atoms: _815  and  _817
REMARK  332  A    between atoms: _817  and  _818
REMARK  333  A    between atoms: _817  and  _820
REMARK  334  A    between atoms: _820  and  _821
REMARK  335  A    between atoms: _826  and  _827
REMARK  336  A    between atoms: _829  and  _831
REMARK  337  A    between atoms: _831  and  _832
REMARK  338  A    between atoms: _831  and  _834
REMARK  339  A    between atoms: _834  and  _835
REMARK  340  A    between atoms: _840  and  _841
REMARK  341  A    between atoms: _843  and  _845
REMARK  342  A    between atoms: _845  and  _846
REMARK  343  A    between atoms: _845  and  _848
REMARK  344  A    between atoms: _848  and  _849
REMARK  345  A    between atoms: _853  and  ZN_1037
REMARK  346  A    between atoms: _854  and  _856
REMARK  347  A    between atoms: _856  and  _857
REMARK  348  A    between atoms: _856  and  _859
REMARK  349  A    between atoms: _859  and  _860
REMARK  350  A    between atoms: _860  and  _861
REMARK  351  A    between atoms: _864  and  _866
REMARK  352  A    between atoms: _866  and  _867
REMARK  353  A    between atoms: _866  and  _869
REMARK  354  A    between atoms: _869  and  _870
REMARK  355  A    between atoms: _870  and  _871
REMARK  356  A    between atoms: _871  and  _872
REMARK  357  A    between atoms: _881  and  _883
REMARK  358  A    between atoms: _883  and  _884
REMARK  359  A    between atoms: _883  and  _886
REMARK  360  A    between atoms: _886  and  _887
REMARK  361  A    between atoms: _887  and  _888
REMARK  362  A    between atoms: _888  and  _889
REMARK  363  A    between atoms: _889  and  _890
REMARK  364  A    between atoms: _894  and  _896
REMARK  365  A    between atoms: _896  and  _897
REMARK  366  A    between atoms: _896  and  _899
REMARK  367  A    between atoms: _899  and  _900
REMARK  368  A    between atoms: _905  and  _906
REMARK  369  A    between atoms: _908  and  _910
REMARK  370  A    between atoms: _910  and  _911
REMARK  371  A    between atoms: _910  and  _913
REMARK  372  A    between atoms: _913  and  _914
REMARK  373  A    between atoms: _914  and  _915
REMARK  374  A    between atoms: _915  and  _916
REMARK  375  A    between atoms: _916  and  _917
REMARK  376  A    between atoms: _921  and  _923
REMARK  377  A    between atoms: _923  and  _924
REMARK  378  A    between atoms: _923  and  _926
REMARK  379  A    between atoms: _926  and  _927
REMARK  380  A    between atoms: _932  and  _933
REMARK  381  A    between atoms: _935  and  _937
REMARK  382  A    between atoms: _937  and  _938
REMARK  383  A    between atoms: _937  and  _940
REMARK  384  A    between atoms: _940  and  _941
REMARK  385  A    between atoms: _946  and  _947
REMARK  386  A    between atoms: _949  and  _951
REMARK  387  A    between atoms: _951  and  _952
REMARK  388  A    between atoms: _956  and  _957
REMARK  389  A    between atoms: _962  and  _964
REMARK  390  A    between atoms: _964  and  _965
REMARK  391  A    between atoms: _964  and  _967
REMARK  392  A    between atoms: _967  and  _968
REMARK  393  A    between atoms: _970  and  _972
REMARK  394  A    between atoms: _972  and  _973
REMARK  395  A    between atoms: _972  and  _975
REMARK  396  A    between atoms: _975  and  _976
REMARK  397  A    between atoms: _981  and  _983
REMARK  398  A    between atoms: _983  and  _984
REMARK  399  A    between atoms: _983  and  _986
REMARK  400  A    between atoms: _986  and  _987
REMARK  401  A    between atoms: _987  and  _988
REMARK  402  A    between atoms: _988  and  _989
REMARK  403  A    between atoms: _989  and  _990
REMARK  404  A    between atoms: _994  and  _996
REMARK  405  A    between atoms: _996  and  _997
REMARK  406  A    between atoms: _996  and  _999
REMARK  407  A    between atoms: _999  and  _1000
REMARK  408  A    between atoms: _1005  and  _1006
REMARK  409  A    between atoms: _1008  and  _1010
REMARK  410  A    between atoms: _1010  and  _1011
REMARK  411  A    between atoms: _1014  and  _1016
REMARK  412  A    between atoms: _1016  and  _1017
REMARK  413  A    between atoms: _1019  and  _1021
REMARK  414  A    between atoms: _1021  and  _1022
REMARK  415  A    between atoms: _1021  and  _1024
REMARK  416  A    between atoms: _1024  and  _1025
REMARK  417  A    between atoms: _1025  and  _1026
REMARK  418  A    between atoms: _1029  and  _1031
REMARK  419  A    between atoms: _1031  and  _1032
REMARK  420  A    between atoms: _1031  and  _1034
REMARK  421  A    between atoms: _1034  and  _1035
REMARK                            x       y       z     vdW  Elec       q    Type
REMARK                         _______ _______ _______ _____ _____    ______ ____
ROOT
ATOM      1  NE  ARG A   1      19.871  49.699  49.902  0.00  0.00    -0.265 N 
ATOM      2  HE  ARG A   1      19.773  48.969  50.636  0.00  0.00    +0.259 HD
ATOM      3  CZ  ARG A   1      19.857  49.310  48.625  0.00  0.00    +0.342 C 
ATOM      4  NH2 ARG A   1      19.674  48.017  48.365  0.00  0.00    -0.292 N 
ATOM      5 HH21 ARG A   1      19.547  47.342  49.146  0.00  0.00    +0.255 HD
ATOM      6 HH22 ARG A   1      19.658  47.682  47.381  0.00  0.00    +0.255 HD
ATOM      7  NH1 ARG A   1      19.965  50.196  47.612  0.00  0.00    -0.292 N 
ATOM      8 HH11 ARG A   1      20.062  51.211  47.817  0.00  0.00    +0.255 HD
ATOM      9 HH12 ARG A   1      19.951  49.864  46.627  0.00  0.00    +0.255 HD
ENDROOT
BRANCH   1  10
ATOM     10  CD  ARG A   1      20.018  51.115  50.339  0.00  0.00    +0.174 C 
BRANCH  10  11
ATOM     11  CG  ARG A   1      20.345  51.269  51.859  0.00  0.00    +0.045 C 
BRANCH  11  12
ATOM     12  CB  ARG A   1      19.382  50.507  52.767  0.00  0.00    +0.029 C 
BRANCH  12  13
ATOM     13  CA  ARG A   1      19.551  50.881  54.254  0.00  0.00    +0.133 C 
BRANCH  13  14
ATOM     14  N   ARG A   1      19.197  52.298  54.454  0.00  0.00    -0.239 NA
ATOM     15  H   ARG A   1      19.943  53.020  54.393  0.00  0.00    +0.142 HD
ENDBRANCH  13  14
BRANCH  13  16
ATOM     16  C   ARG A   1      21.006  50.746  54.641  0.00  0.00    +0.224 C 
ATOM     17  O   ARG A   1      21.764  51.721  54.614  0.00  0.00    -0.287 OA
ENDBRANCH  13  16
ENDBRANCH  12  13
ENDBRANCH  11  12
ENDBRANCH  10  11
ENDBRANCH   1  10
TORSDOF 6
REMARK  Name = ../refined-set-2016/2xef/2xef_pocket.pdb
REMARK  421 active torsions:
REMARK  status: ('A' for Active; 'I' for Inactive)
REMARK    1  A    between atoms: _1  and  _3
REMARK    2  A    between atoms: _3  and  _4
REMARK    3  A    between atoms: _7  and  _9
REMARK    4  A    between atoms: _9  and  _10
REMARK    5  A    between atoms: _9  and  _12
REMARK    6  A    between atoms: _12  and  _13
REMARK    7  A    between atoms: _19  and  _21
REMARK    8  A    between atoms: _21  and  _22
REMARK    9  A    between atoms: _21  and  _24
REMARK   10  A    between atoms: _24  and  _25
REMARK   11  A    between atoms: _30  and  _31
REMARK   12  A    between atoms: _33  and  _35
REMARK   13  A    between atoms: _35  and  _36
REMARK   14  A    between atoms: _38  and  _40
REMARK   15  A    between atoms: _40  and  _41
REMARK   16  A    between atoms: _40  and  _43
REMARK   17  A    between atoms: _43  and  _44
REMARK   18  A    between atoms: _44  and  _45
REMARK   19  A    between atoms: _45  and  _46
REMARK   20  A    between atoms: _46  and  _47
REMARK   21  A    between atoms: _51  and  _53
REMARK   22  A    between atoms: _53  and  _54
REMARK   23  A    between atoms: _53  and  _56
REMARK   24  A    between atoms: _59  and  _61
REMARK   25  A    between atoms: _61  and  _62
REMARK   26  A    between atoms: _61  and  _64
REMARK   27  A    between atoms: _64  and  _65
REMARK   28  A    between atoms: _71  and  _73
REMARK   29  A    between atoms: _73  and  _74
REMARK   30  A    between atoms: _73  and  _76
REMARK   31  A    between atoms: _76  and  _77
REMARK   32  A    between atoms: _77  and  _78
REMARK   33  A    between atoms: _78  and  _79
REMARK   34  A    between atoms: _88  and  _90
REMARK   35  A    between atoms: _90  and  _91
REMARK   36  A    between atoms: _93  and  _95
REMARK   37  A    between atoms: _95  and  _96
REMARK   38  A    between atoms: _95  and  _98
REMARK   39  A    between atoms: _98  and  _99
REMARK   40  A    between atoms: _99  and  _100
REMARK   41  A    between atoms: _100  and  _101
REMARK   42  A    between atoms: _101  and  _102
REMARK   43  A    between atoms: _106  and  _108
REMARK   44  A    between atoms: _108  and  _109
REMARK   45  A    between atoms: _108  and  _111
REMARK   46  A    between atoms: _111  and  _112
REMARK   47  A    between atoms: _117  and  _118
REMARK   48  A    between atoms: _120  and  _122
REMARK   49  A    between atoms: _122  and  _123
REMARK   50  A    between atoms: _122  and  _125
REMARK   51  A    between atoms: _125  and  _126
REMARK   52  A    between atoms: _126  and  _127
REMARK   53  A    between atoms: _132  and  _134
REMARK   54  A    between atoms: _134  and  _135
REMARK   55  A    between atoms: _134  and  _137
REMARK   56  A    between atoms: _137  and  _138
REMARK   57  A    between atoms: _138  and  _139
REMARK   58  A    between atoms: _139  and  _140
REMARK   59  A    between atoms: _149  and  _151
REMARK   60  A    between atoms: _151  and  _152
REMARK   61  A    between atoms: _154  and  _156
REMARK   62  A    between atoms: _156  and  _157
REMARK   63  A    between atoms: _156  and  _159
REMARK   64  A    between atoms: _159  and  _160
REMARK   65  A    between atoms: _165  and  _167
REMARK   66  A    between atoms: _167  and  _168
REMARK   67  A    between atoms: _167  and  _170
REMARK   68  A    between atoms: _170  and  _171
REMARK   69  A    between atoms: _174  and  _176
REMARK   70  A    between atoms: _176  and  _177
REMARK   71  A    between atoms: _176  and  _179
REMARK   72  A    between atoms: _179  and  _180
REMARK   73  A    between atoms: _183  and  _185
REMARK   74  A    between atoms: _185  and  _186
REMARK   75  A    between atoms: _185  and  _188
REMARK   76  A    between atoms: _188  and  _189
REMARK   77  A    between atoms: _194  and  _196
REMARK   78  A    between atoms: _196  and  _197
REMARK   79  A    between atoms: _196  and  _199
REMARK   80  A    between atoms: _199  and  _200
REMARK   81  A    between atoms: _203  and  _205
REMARK   82  A    between atoms: _205  and  _206
REMARK   83  A    between atoms: _205  and  _208
REMARK   84  A    between atoms: _208  and  _209
REMARK   85  A    between atoms: _214  and  _216
REMARK   86  A    between atoms: _216  and  _217
REMARK   87  A    between atoms: _219  and  _221
REMARK   88  A    between atoms: _221  and  _222
REMARK   89  A    between atoms: _224  and  _226
REMARK   90  A    between atoms: _226  and  _227
REMARK   91  A    between atoms: _226  and  _229
REMARK   92  A    between atoms: _229  and  _230
REMARK   93  A    between atoms: _234  and  ZN_1038
REMARK   94  A    between atoms: _235  and  _237
REMARK   95  A    between atoms: _237  and  _238
REMARK   96  A    between atoms: _237  and  _240
REMARK   97  A    between atoms: _240  and  _241
REMARK   98  A    between atoms: _244  and  _246
REMARK   99  A    between atoms: _246  and  _247
REMARK  100  A    between atoms: _246  and  _249
REMARK  101  A    between atoms: _249  and  _250
REMARK  102  A    between atoms: _260  and  _262
REMARK  103  A    between atoms: _262  and  _263
REMARK  104  A    between atoms: _262  and  _265
REMARK  105  A    between atoms: _265  and  _266
REMARK  106  A    between atoms: _269  and  _271
REMARK  107  A    between atoms: _271  and  _272
REMARK  108  A    between atoms: _271  and  _274
REMARK  109  A    between atoms: _274  and  _275
REMARK  110  A    between atoms: _279  and  _280
REMARK  111  A    between atoms: _285  and  _287
REMARK  112  A    between atoms: _287  and  _288
REMARK  113  A    between atoms: _291  and  _293
REMARK  114  A    between atoms: _293  and  _294
REMARK  115  A    between atoms: _293  and  _296
REMARK  116  A    between atoms: _296  and  _297
REMARK  117  A    between atoms: _297  and  _298
REMARK  118  A    between atoms: _301  and  _303
REMARK  119  A    between atoms: _303  and  _304
REMARK  120  A    between atoms: _303  and  _306
REMARK  121  A    between atoms: _306  and  _307
REMARK  122  A    between atoms: _307  and  _308
REMARK  123  A    between atoms: _308  and  _310
REMARK  124  A    between atoms: _310  and  ZN_1037
REMARK  125  A    between atoms: _311  and  _313
REMARK  126  A    between atoms: _313  and  _314
REMARK  127  A    between atoms: _313  and  _316
REMARK  128  A    between atoms: _316  and  _317
REMARK  129  A    between atoms: _323  and  _325
REMARK  130  A    between atoms: _325  and  _326
REMARK  131  A    between atoms: _328  and  _330
REMARK  132  A    between atoms: _330  and  _331
REMARK  133  A    between atoms: _330  and  _333
REMARK  134  A    between atoms: _333  and  _334
REMARK  135  A    between atoms: _337  and  _339
REMARK  136  A    between atoms: _339  and  _340
REMARK  137  A    between atoms: _339  and  _342
REMARK  138  A    between atoms: _342  and  _343
REMARK  139  A    between atoms: _346  and  _348
REMARK  140  A    between atoms: _348  and  _349
REMARK  141  A    between atoms: _348  and  _351
REMARK  142  A    between atoms: _351  and  _352
REMARK  143  A    between atoms: _357  and  _359
REMARK  144  A    between atoms: _359  and  _360
REMARK  145  A    between atoms: _359  and  _362
REMARK  146  A    between atoms: _362  and  _363
REMARK  147  A    between atoms: _363  and  _365
REMARK  148  A    between atoms: _365  and  ZN_1038
REMARK  149  A    between atoms: _366  and  _368
REMARK  150  A    between atoms: _368  and  _369
REMARK  151  A    between atoms: _368  and  _371
REMARK  152  A    between atoms: _371  and  _372
REMARK  153  A    between atoms: _374  and  _376
REMARK  154  A    between atoms: _376  and  _377
REMARK  155  A    between atoms: _376  and  _379
REMARK  156  A    between atoms: _379  and  _380
REMARK  157  A    between atoms: _382  and  _384
REMARK  158  A    between atoms: _384  and  _385
REMARK  159  A    between atoms: _384  and  _387
REMARK  160  A    between atoms: _387  and  _388
REMARK  161  A    between atoms: _391  and  _393
REMARK  162  A    between atoms: _393  and  _394
REMARK  163  A    between atoms: _393  and  _396
REMARK  164  A    between atoms: _396  and  _397
REMARK  165  A    between atoms: _397  and  _398
REMARK  166  A    between atoms: _401  and  _403
REMARK  167  A    between atoms: _403  and  _404
REMARK  168  A    between atoms: _403  and  _406
REMARK  169  A    between atoms: _406  and  _407
REMARK  170  A    between atoms: _412  and  _413
REMARK  171  A    between atoms: _415  and  _417
REMARK  172  A    between atoms: _417  and  _418
REMARK  173  A    between atoms: _417  and  _420
REMARK  174  A    between atoms: _420  and  _421
REMARK  175  A    between atoms: _424  and  _426
REMARK  176  A    between atoms: _426  and  _427
REMARK  177  A    between atoms: _426  and  _429
REMARK  178  A    between atoms: _429  and  _430
REMARK  179  A    between atoms: _433  and  _435
REMARK  180  A    between atoms: _435  and  _436
REMARK  181  A    between atoms: _435  and  _438
REMARK  182  A    between atoms: _438  and  _439
REMARK  183  A    between atoms: _439  and  _440
REMARK  184  A    between atoms: _440  and  _441
REMARK  185  A    between atoms: _450  and  _452
REMARK  186  A    between atoms: _452  and  _453
REMARK  187  A    between atoms: _452  and  _455
REMARK  188  A    between atoms: _458  and  _460
REMARK  189  A    between atoms: _460  and  _461
REMARK  190  A    between atoms: _460  and  _463
REMARK  191  A    between atoms: _463  and  _464
REMARK  192  A    between atoms: _467  and  _469
REMARK  193  A    between atoms: _469  and  _470
REMARK  194  A    between atoms: _469  and  _472
REMARK  195  A    between atoms: _474  and  _476
REMARK  196  A    between atoms: _476  and  _477
REMARK  197  A    between atoms: _476  and  _479
REMARK  198  A    between atoms: _479  and  _480
REMARK  199  A    between atoms: _490  and  _492
REMARK  200  A    between atoms: _492  and  _493
REMARK  201  A    between atoms: _492  and  _495
REMARK  202  A    between atoms: _495  and  _496
REMARK  203  A    between atoms: _496  and  _497
REMARK  204  A    between atoms: _497  and  _498
REMARK  205  A    between atoms: _498  and  _499
REMARK  206  A    between atoms: _503  and  _505
REMARK  207  A    between atoms: _505  and  _506
REMARK  208  A    between atoms: _505  and  _508
REMARK  209  A    between atoms: _508  and  _509
REMARK  210  A    between atoms: _512  and  _513
REMARK  211  A    between atoms: _519  and  _520
REMARK  212  A    between atoms: _525  and  _527
REMARK  213  A    between atoms: _527  and  _528
REMARK  214  A    between atoms: _527  and  _530
REMARK  215  A    between atoms: _530  and  _531
REMARK  216  A    between atoms: _531  and  _532
REMARK  217  A    between atoms: _535  and  _537
REMARK  218  A    between atoms: _537  and  _538
REMARK  219  A    between atoms: _537  and  _540
REMARK  220  A    between atoms: _540  and  _541
REMARK  221  A    between atoms: _541  and  _542
REMARK  222  A    between atoms: _542  and  _543
REMARK  223  A    between atoms: _552  and  _554
REMARK  224  A    between atoms: _554  and  _555
REMARK  225  A    between atoms: _554  and  _557
REMARK  226  A    between atoms: _557  and  _558
REMARK  227  A    between atoms: _561  and  _563
REMARK  228  A    between atoms: _563  and  _564
REMARK  229  A    between atoms: _563  and  _566
REMARK  230  A    between atoms: _566  and  _567
REMARK  231  A    between atoms: _569  and  _571
REMARK  232  A    between atoms: _571  and  _572
REMARK  233  A    between atoms: _571  and  _574
REMARK  234  A    between atoms: _574  and  _575
REMARK  235  A    between atoms: _575  and  _576
REMARK  236  A    between atoms: _576  and  _577
REMARK  237  A    between atoms: _577  and  _578
REMARK  238  A    between atoms: _582  and  _584
REMARK  239  A    between atoms: _584  and  _585
REMARK  240  A    between atoms: _584  and  _587
REMARK  241  A    between atoms: _587  and  _588
REMARK  242  A    between atoms: _591  and  _593
REMARK  243  A    between atoms: _593  and  _594
REMARK  244  A    between atoms: _596  and  _598
REMARK  245  A    between atoms: _598  and  _599
REMARK  246  A    between atoms: _598  and  _601
REMARK  247  A    between atoms: _601  and  _602
REMARK  248  A    between atoms: _604  and  _606
REMARK  249  A    between atoms: _606  and  _607
REMARK  250  A    between atoms: _609  and  _611
REMARK  251  A    between atoms: _611  and  _612
REMARK  252  A    between atoms: _611  and  _614
REMARK  253  A    between atoms: _614  and  _615
REMARK  254  A    between atoms: _620  and  _622
REMARK  255  A    between atoms: _622  and  _623
REMARK  256  A    between atoms: _622  and  _625
REMARK  257  A    between atoms: _625  and  _626
REMARK  258  A    between atoms: _629  and  _631
REMARK  259  A    between atoms: _631  and  _632
REMARK  260  A    between atoms: _631  and  _634
REMARK  261  A    between atoms: _634  and  _635
REMARK  262  A    between atoms: _641  and  _643
REMARK  263  A    between atoms: _643  and  _644
REMARK  264  A    between atoms: _643  and  _646
REMARK  265  A    between atoms: _646  and  _647
REMARK  266  A    between atoms: _647  and  _648
REMARK  267  A    between atoms: _651  and  _653
REMARK  268  A    between atoms: _653  and  _654
REMARK  269  A    between atoms: _653  and  _656
REMARK  270  A    between atoms: _656  and  _657
REMARK  271  A    between atoms: _657  and  _658
REMARK  272  A    between atoms: _663  and  _665
REMARK  273  A    between atoms: _665  and  _666
REMARK  274  A    between atoms: _665  and  _668
REMARK  275  A    between atoms: _668  and  _669
REMARK  276  A    between atoms: _669  and  _670
REMARK  277  A    between atoms: _670  and  _671
REMARK  278  A    between atoms: _680  and  _682
REMARK  279  A    between atoms: _682  and  _683
REMARK  280  A    between atoms: _682  and  _685
REMARK  281  A    between atoms: _685  and  _686
REMARK  282  A    between atoms: _686  and  _687
REMARK  283  A    between atoms: _687  and  _688
REMARK  284  A    between atoms: _697  and  _699
REMARK  285  A    between atoms: _699  and  _700
REMARK  286  A    between atoms: _699  and  _702
REMARK  287  A    between atoms: _702  and  _703
REMARK  288  A    between atoms: _708  and  _709
REMARK  289  A    between atoms: _711  and  _713
REMARK  290  A    between atoms: _713  and  _714
REMARK  291  A    between atoms: _713  and  _716
REMARK  292  A    between atoms: _716  and  _717
REMARK  293  A    between atoms: _720  and  _722
REMARK  294  A    between atoms: _722  and  _723
REMARK  295  A    between atoms: _722  and  _725
REMARK  296  A    between atoms: _725  and  _726
REMARK  297  A    between atoms: _726  and  _727
REMARK  298  A    between atoms: _727  and  _728
REMARK  299  A    between atoms: _728  and  _729
REMARK  300  A    between atoms: _733  and  _735
REMARK  301  A    between atoms: _735  and  _736
REMARK  302  A    between atoms: _735  and  _738
REMARK  303  A    between atoms: _738  and  _739
REMARK  304  A    between atoms: _744  and  _746
REMARK  305  A    between atoms: _746  and  _747
REMARK  306  A    between atoms: _746  and  _749
REMARK  307  A    between atoms: _749  and  _750
REMARK  308  A    between atoms: _760  and  _762
REMARK  309  A    between atoms: _762  and  _763
REMARK  310  A    between atoms: _762  and  _765
REMARK  311  A    between atoms: _765  and  _766
REMARK  312  A    between atoms: _766  and  _767
REMARK  313  A    between atoms: _770  and  _772
REMARK  314  A    between atoms: _772  and  _773
REMARK  315  A    between atoms: _772  and  _775
REMARK  316  A    between atoms: _775  and  _776
REMARK  317  A    between atoms: _779  and  _781
REMARK  318  A    between atoms: _781  and  _782
REMARK  319  A    between atoms: _781  and  _784
REMARK  320  A    between atoms: _784  and  _785
REMARK  321  A    between atoms: _790  and  _792
REMARK  322  A    between atoms: _792  and  _793
REMARK  323  A    between atoms: _792  and  _795
REMARK  324  A    between atoms: _795  and  _796
REMARK  325  A    between atoms: _802  and  _804
REMARK  326  A    between atoms: _804  and  _805
REMARK  327  A    between atoms: _804  and  _807
REMARK  328  A    between atoms: _807  and  _808
REMARK  329  A    between atoms: _810  and  _812
REMARK  330  A    between atoms: _812  and  _813
REMARK  331  A    between atoms: _815  and  _817
REMARK  332  A    between atoms: _817  and  _818
REMARK  333  A    between atoms: _817  and  _820
REMARK  334  A    between atoms: _820  and  _821
REMARK  335  A    between atoms: _826  and  _827
REMARK  336  A    between atoms: _829  and  _831
REMARK  337  A    between atoms: _831  and  _832
REMARK  338  A    between atoms: _831  and  _834
REMARK  339  A    between atoms: _834  and  _835
REMARK  340  A    between atoms: _840  and  _841
REMARK  341  A    between atoms: _843  and  _845
REMARK  342  A    between atoms: _845  and  _846
REMARK  343  A    between atoms: _845  and  _848
REMARK  344  A    between atoms: _848  and  _849
REMARK  345  A    between atoms: _853  and  ZN_1037
REMARK  346  A    between atoms: _854  and  _856
REMARK  347  A    between atoms: _856  and  _857
REMARK  348  A    between atoms: _856  and  _859
REMARK  349  A    between atoms: _859  and  _860
REMARK  350  A    between atoms: _860  and  _861
REMARK  351  A    between atoms: _864  and  _866
REMARK  352  A    between atoms: _866  and  _867
REMARK  353  A    between atoms: _866  and  _869
REMARK  354  A    between atoms: _869  and  _870
REMARK  355  A    between atoms: _870  and  _871
REMARK  356  A    between atoms: _871  and  _872
REMARK  357  A    between atoms: _881  and  _883
REMARK  358  A    between atoms: _883  and  _884
REMARK  359  A    between atoms: _883  and  _886
REMARK  360  A    between atoms: _886  and  _887
REMARK  361  A    between atoms: _887  and  _888
REMARK  362  A    between atoms: _888  and  _889
REMARK  363  A    between atoms: _889  and  _890
REMARK  364  A    between atoms: _894  and  _896
REMARK  365  A    between atoms: _896  and  _897
REMARK  366  A    between atoms: _896  and  _899
REMARK  367  A    between atoms: _899  and  _900
REMARK  368  A    between atoms: _905  and  _906
REMARK  369  A    between atoms: _908  and  _910
REMARK  370  A    between atoms: _910  and  _911
REMARK  371  A    between atoms: _910  and  _913
REMARK  372  A    between atoms: _913  and  _914
REMARK  373  A    between atoms: _914  and  _915
REMARK  374  A    between atoms: _915  and  _916
REMARK  375  A    between atoms: _916  and  _917
REMARK  376  A    between atoms: _921  and  _923
REMARK  377  A    between atoms: _923  and  _924
REMARK  378  A    between atoms: _923  and  _926
REMARK  379  A    between atoms: _926  and  _927
REMARK  380  A    between atoms: _932  and  _933
REMARK  381  A    between atoms: _935  and  _937
REMARK  382  A    between atoms: _937  and  _938
REMARK  383  A    between atoms: _937  and  _940
REMARK  384  A    between atoms: _940  and  _941
REMARK  385  A    between atoms: _946  and  _947
REMARK  386  A    between atoms: _949  and  _951
REMARK  387  A    between atoms: _951  and  _952
REMARK  388  A    between atoms: _956  and  _957
REMARK  389  A    between atoms: _962  and  _964
REMARK  390  A    between atoms: _964  and  _965
REMARK  391  A    between atoms: _964  and  _967
REMARK  392  A    between atoms: _967  and  _968
REMARK  393  A    between atoms: _970  and  _972
REMARK  394  A    between atoms: _972  and  _973
REMARK  395  A    between atoms: _972  and  _975
REMARK  396  A    between atoms: _975  and  _976
REMARK  397  A    between atoms: _981  and  _983
REMARK  398  A    between atoms: _983  and  _984
REMARK  399  A    between atoms: _983  and  _986
REMARK  400  A    between atoms: _986  and  _987
REMARK  401  A    between atoms: _987  and  _988
REMARK  402  A    between atoms: _988  and  _989
REMARK  403  A    between atoms: _989  and  _990
REMARK  404  A    between atoms: _994  and  _996
REMARK  405  A    between atoms: _996  and  _997
REMARK  406  A    between atoms: _996  and  _999
REMARK  407  A    between atoms: _999  and  _1000
REMARK  408  A    between atoms: _1005  and  _1006
REMARK  409  A    between atoms: _1008  and  _1010
REMARK  410  A    between atoms: _1010  and  _1011
REMARK  411  A    between atoms: _1014  and  _1016
REMARK  412  A    between atoms: _1016  and  _1017
REMARK  413  A    between atoms: _1019  and  _1021
REMARK  414  A    between atoms: _1021  and  _1022
REMARK  415  A    between atoms: _1021  and  _1024
REMARK  416  A    between atoms: _1024  and  _1025
REMARK  417  A    between atoms: _1025  and  _1026
REMARK  418  A    between atoms: _1029  and  _1031
REMARK  419  A    between atoms: _1031  and  _1032
REMARK  420  A    between atoms: _1031  and  _1034
REMARK  421  A    between atoms: _1034  and  _1035
REMARK                            x       y       z     vdW  Elec       q    Type
REMARK                         _______ _______ _______ _____ _____    ______ ____
ROOT
ATOM      1  C   LYS A   4      34.313  46.046  49.554  0.00  0.00    +0.241 C 
ATOM      2  O   LYS A   4      33.827  47.132  49.893  0.00  0.00    -0.273 OA
ATOM      3  N   ASN A   5      35.605  45.884  49.292  0.00  0.00    -0.297 N 
ATOM      4  H   ASN A   5      35.978  44.926  49.138  0.00  0.00    +0.150 HD
ENDROOT
BRANCH   3   5
ATOM      5  CA  ASN A   5      36.501  47.014  49.217  0.00  0.00    +0.158 C 
BRANCH   5   6
ATOM      6  C   ASN A   5      36.391  47.575  47.821  0.00  0.00    +0.241 C 
ATOM      7  N   TRP A   6      35.831  48.762  47.709  0.00  0.00    -0.297 N 
ATOM      8  H   TRP A   6      35.569  49.282  48.571  0.00  0.00    +0.150 HD
ATOM      9  O   ASN A   5      36.827  46.951  46.857  0.00  0.00    -0.273 OA
BRANCH   7  10
ATOM     10  CA  TRP A   6      35.569  49.366  46.410  0.00  0.00    +0.153 C 
BRANCH  10  11
ATOM     11  C   TRP A   6      36.863  49.787  45.680  0.00  0.00    +0.241 C 
ATOM     12  N   GLU A   7      37.953  49.928  46.433  0.00  0.00    -0.297 N 
ATOM     13  H   GLU A   7      37.881  49.740  47.453  0.00  0.00    +0.150 HD
ATOM     14  O   TRP A   6      36.865  49.942  44.456  0.00  0.00    -0.273 OA
BRANCH  12  15
ATOM     15  CA  GLU A   7      39.248  50.336  45.885  0.00  0.00    +0.149 C 
BRANCH  15  16
ATOM     16  C   GLU A   7      39.896  49.207  45.104  0.00  0.00    +0.241 C 
ATOM     17  N   THR A   8      39.923  48.027  45.705  0.00  0.00    -0.295 N 
ATOM     18  H   THR A   8      39.405  47.899  46.598  0.00  0.00    +0.150 HD
ATOM     19  O   GLU A   7      40.366  49.397  43.980  0.00  0.00    -0.273 OA
BRANCH  17  20
ATOM     20  CA  THR A   8      40.658  46.912  45.145  0.00  0.00    +0.176 C 
BRANCH  20  21
ATOM     21  C   THR A   8      39.776  46.020  44.282  0.00  0.00    +0.243 C 
ATOM     22  N   ASN A   9      38.482  46.335  44.218  0.00  0.00    -0.298 N 
ATOM     23  H   ASN A   9      38.143  47.189  44.705  0.00  0.00    +0.150 HD
ATOM     24  O   THR A   8      40.259  45.062  43.686  0.00  0.00    -0.273 OA
BRANCH  22  25
ATOM     25  CA  ASN A   9      37.528  45.508  43.479  0.00  0.00    +0.146 C 
BRANCH  25  26
ATOM     26  C   ASN A   9      36.803  46.293  42.390  0.00  0.00    +0.227 C 
ATOM     27  O   ASN A   9      36.002  47.186  42.673  0.00  0.00    -0.286 OA
ENDBRANCH  25  26
BRANCH  25  28
ATOM     28  CB  ASN A   9      36.534  44.826  44.433  0.00  0.00    +0.112 C 
BRANCH  28  29
ATOM     29  CG  ASN A   9      37.229  43.934  45.465  0.00  0.00    +0.222 C 
ATOM     30  ND2 ASN A   9      36.982  44.200  46.749  0.00  0.00    -0.329 N 
ATOM     31 HD21 ASN A   9      37.428  43.627  47.494  0.00  0.00    +0.145 HD
ATOM     32 HD22 ASN A   9      36.343  44.980  47.005  0.00  0.00    +0.145 HD
ATOM     33  OD1 ASN A   9      37.983  43.015  45.108  0.00  0.00    -0.275 OA
ENDBRANCH  28  29
ENDBRANCH  25  28
ENDBRANCH  22  25
ENDBRANCH  20  21
BRANCH  20  34
ATOM     34  CB  THR A   8      41.329  46.083  46.259  0.00  0.00    +0.137 C 
ATOM     35  CG2 THR A   8      42.279  46.959  47.083  0.00  0.00    +0.034 C 
BRANCH  34  36
ATOM     36  OG1 THR A   8      40.322  45.531  47.119  0.00  0.00    -0.382 OA
ATOM     37  HG1 THR A   8      40.755  44.999  47.833  0.00  0.00    +0.210 HD
ENDBRANCH  34  36
ENDBRANCH  20  34
ENDBRANCH  17  20
ENDBRANCH  15  16
BRANCH  15  38
ATOM     38  CB  GLU A   7      40.192  50.761  47.010  0.00  0.00    +0.041 C 
BRANCH  38  39
ATOM     39  CG  GLU A   7      39.659  51.882  47.880  0.00  0.00    +0.116 C 
BRANCH  39  40
ATOM     40  CD  GLU A   7      39.967  53.252  47.309  0.00  0.00    +0.365 C 
ATOM     41  OE2 GLU A   7      41.172  53.588  47.205  0.00  0.00    -0.246 OA
ATOM     42  OE1 GLU A   7      39.008  53.992  46.972  0.00  0.00    -0.246 OA
ENDBRANCH  39  40
ENDBRANCH  38  39
ENDBRANCH  15  38
ENDBRANCH  12  15
ENDBRANCH  10  11
BRANCH  10  43
ATOM     43  CB  TRP A   6      34.625  50.546  46.598  0.00  0.00    +0.057 C 
BRANCH  43  44
ATOM     44  CG  TRP A   6      33.197  50.105  46.869  0.00  0.00    -0.002 A 
ATOM     45  CD1 TRP A   6      32.763  49.163  47.784  0.00  0.00    +0.068 A 
ATOM     46  NE1 TRP A   6      31.398  49.040  47.732  0.00  0.00    -0.352 N 
ATOM     47  HE1 TRP A   6      30.822  48.401  48.316  0.00  0.00    +0.166 HD
ATOM     48  CE2 TRP A   6      30.921  49.903  46.779  0.00  0.00    +0.056 A 
ATOM     49  CZ2 TRP A   6      29.612  50.155  46.375  0.00  0.00    +0.017 A 
ATOM     50  CH2 TRP A   6      29.425  51.094  45.387  0.00  0.00    +0.001 A 
ATOM     51  CZ3 TRP A   6      30.510  51.798  44.815  0.00  0.00    +0.000 A 
ATOM     52  CE3 TRP A   6      31.803  51.559  45.224  0.00  0.00    +0.001 A 
ATOM     53  CD2 TRP A   6      32.029  50.596  46.228  0.00  0.00    +0.013 A 
ENDBRANCH  43  44
ENDBRANCH  10  43
ENDBRANCH   7  10
ENDBRANCH   5   6
BRANCH   5  54
ATOM     54  CB  ASN A   5      37.946  46.568  49.496  0.00  0.00    +0.114 C 
BRANCH  54  55
ATOM     55  CG  ASN A   5      38.940  47.734  49.447  0.00  0.00    +0.222 C 
ATOM     56  ND2 ASN A   5      40.156  47.493  49.945  0.00  0.00    -0.329 N 
ATOM     57 HD21 ASN A   5      40.386  46.552  50.323  0.00  0.00    +0.145 HD
ATOM     58 HD22 ASN A   5      40.873  48.247  49.955  0.00  0.00    +0.145 HD
ATOM     59  OD1 ASN A   5      38.608  48.840  48.982  0.00  0.00    -0.275 OA
ENDBRANCH  54  55
ENDBRANCH   5  54
ENDBRANCH   3   5
BRANCH   1  60
ATOM     60  CA  LYS A   4      33.438  44.795  49.454  0.00  0.00    +0.149 C 
BRANCH  60  63
ATOM     61  C   THR A   3      31.630  45.093  51.113  0.00  0.00    +0.243 C 
ATOM     62  O   THR A   3      32.318  44.802  52.060  0.00  0.00    -0.273 OA
ATOM     63  N   LYS A   4      32.056  45.092  49.847  0.00  0.00    -0.297 N 
ATOM     64  H   LYS A   4      31.370  45.314  49.098  0.00  0.00    +0.150 HD
BRANCH  61  65
ATOM     65  CA  THR A   3      30.150  45.421  51.325  0.00  0.00    +0.176 C 
BRANCH  65  67
ATOM     66  C   TYR A   2      28.644  44.685  53.066  0.00  0.00    +0.241 C 
ATOM     67  N   THR A   3      29.804  45.260  52.737  0.00  0.00    -0.295 N 
ATOM     68  H   THR A   3      30.455  45.590  53.478  0.00  0.00    +0.150 HD
ATOM     69  O   TYR A   2      27.901  44.151  52.228  0.00  0.00    -0.273 OA
BRANCH  66  70
ATOM     70  CA  TYR A   2      28.253  44.746  54.540  0.00  0.00    +0.153 C 
BRANCH  70  73
ATOM     71  C   ARG A   1      26.254  46.089  54.620  0.00  0.00    +0.238 C 
ATOM     72  O   ARG A   1      26.906  47.122  54.672  0.00  0.00    -0.274 OA
ATOM     73  N   TYR A   2      26.793  44.889  54.669  0.00  0.00    -0.297 N 
ATOM     74  H   TYR A   2      26.193  44.049  54.798  0.00  0.00    +0.150 HD
BRANCH  71  75
ATOM     75  CA  ARG A   1      24.756  46.135  54.541  0.00  0.00    +0.145 C 
BRANCH  75  76
ATOM     76  N   ARG A   1      24.325  47.525  54.762  0.00  0.00    -0.238 NA
ATOM     77  H   ARG A   1      24.992  48.308  54.609  0.00  0.00    +0.142 HD
ENDBRANCH  75  76
BRANCH  75  78
ATOM     78  CB  ARG A   1      24.336  45.628  53.155  0.00  0.00    +0.030 C 
BRANCH  78  79
ATOM     79  CG  ARG A   1      24.913  46.418  51.981  0.00  0.00    +0.045 C 
BRANCH  79  80
ATOM     80  CD  ARG A   1      24.585  45.744  50.597  0.00  0.00    +0.174 C 
BRANCH  80  81
ATOM     81  NE  ARG A   1      23.121  45.516  50.433  0.00  0.00    -0.265 N 
ATOM     82  HE  ARG A   1      22.550  45.414  51.296  0.00  0.00    +0.259 HD
ATOM     83  CZ  ARG A   1      22.488  45.433  49.258  0.00  0.00    +0.342 C 
ATOM     84  NH2 ARG A   1      21.170  45.216  49.206  0.00  0.00    -0.292 N 
ATOM     85 HH21 ARG A   1      20.625  45.110  50.086  0.00  0.00    +0.255 HD
ATOM     86 HH22 ARG A   1      20.689  45.153  48.286  0.00  0.00    +0.255 HD
ATOM     87  NH1 ARG A   1      23.168  45.556  48.139  0.00  0.00    -0.292 N 
ATOM     88 HH11 ARG A   1      24.195  45.717  48.170  0.00  0.00    +0.255 HD
ATOM     89 HH12 ARG A   1      22.679  45.492  47.223  0.00  0.00    +0.255 HD
ENDBRANCH  80  81
ENDBRANCH  79  80
ENDBRANCH  78  79
ENDBRANCH  75  78
ENDBRANCH  71  75
ENDBRANCH  70  73
BRANCH  70  90
ATOM     90  CB  TYR A   2      28.810  43.539  55.338  0.00  0.00    +0.055 C 
BRANCH  90  91
ATOM     91  CG  TYR A   2      29.726  44.004  56.450  0.00  0.00    -0.020 A 
ATOM     92  CD2 TYR A   2      29.200  44.698  57.552  0.00  0.00    -0.001 A 
ATOM     93  CE2 TYR A   2      30.000  45.178  58.559  0.00  0.00    +0.036 A 
ATOM     94  CZ  TYR A   2      31.383  44.977  58.489  0.00  0.00    +0.134 A 
ATOM     95  CE1 TYR A   2      31.956  44.301  57.403  0.00  0.00    +0.036 A 
ATOM     96  CD1 TYR A   2      31.113  43.802  56.374  0.00  0.00    -0.001 A 
BRANCH  94  97
ATOM     97  OH  TYR A   2      32.221  45.451  59.500  0.00  0.00    -0.506 OA
ATOM     98  HH  TYR A   2      32.710  44.691  59.905  0.00  0.00    +0.292 HD
ENDBRANCH  94  97
ENDBRANCH  90  91
ENDBRANCH  70  90
ENDBRANCH  66  70
ENDBRANCH  65  67
BRANCH  65  99
ATOM     99  CB  THR A   3      29.804  46.851  50.819  0.00  0.00    +0.137 C 
ATOM    100  CG2 THR A   3      30.730  47.906  51.435  0.00  0.00    +0.034 C 
BRANCH  99 101
ATOM    101  OG1 THR A   3      29.901  46.877  49.376  0.00  0.00    -0.382 OA
ATOM    102  HG1 THR A   3      29.264  46.223  48.992  0.00  0.00    +0.210 HD
ENDBRANCH  99 101
ENDBRANCH  65  99
ENDBRANCH  61  65
ENDBRANCH  60  63
BRANCH  60 103
ATOM    103  CB  LYS A   4      33.400  44.285  48.001  0.00  0.00    +0.029 C 
BRANCH 103 104
ATOM    104  CG  LYS A   4      33.081  45.401  47.026  0.00  0.00    +0.000 C 
BRANCH 104 105
ATOM    105  CD  LYS A   4      32.489  44.915  45.725  0.00  0.00    -0.024 C 
BRANCH 105 106
ATOM    106  CE  LYS A   4      32.126  46.103  44.831  0.00  0.00    -0.086 C 
BRANCH 106 107
ATOM    107  NZ  LYS A   4      31.585  45.658  43.513  0.00  0.00    +0.380 N 
ATOM    108  HZ1 LYS A   4      30.728  45.089  43.666  0.00  0.00    -0.089 HD
ATOM    109  HZ2 LYS A   4      32.300  45.085  43.022  0.00  0.00    -0.089 HD
ATOM    110  HZ3 LYS A   4      31.351  46.491  42.936  0.00  0.00    -0.089 HD
ENDBRANCH 106 107
ENDBRANCH 105 106
ENDBRANCH 104 105
ENDBRANCH 103 104
ENDBRANCH  60 103
ENDBRANCH   1  60
TORSDOF 43
REMARK  Name = ../refined-set-2016/2xef/2xef_pocket.pdb
REMARK  421 active torsions:
REMARK  status: ('A' for Active; 'I' for Inactive)
REMARK    1  A    between atoms: _1  and  _3
REMARK    2  A    between atoms: _3  and  _4
REMARK    3  A    between atoms: _7  and  _9
REMARK    4  A    between atoms: _9  and  _10
REMARK    5  A    between atoms: _9  and  _12
REMARK    6  A    between atoms: _12  and  _13
REMARK    7  A    between atoms: _19  and  _21
REMARK    8  A    between atoms: _21  and  _22
REMARK    9  A    between atoms: _21  and  _24
REMARK   10  A    between atoms: _24  and  _25
REMARK   11  A    between atoms: _30  and  _31
REMARK   12  A    between atoms: _33  and  _35
REMARK   13  A    between atoms: _35  and  _36
REMARK   14  A    between atoms: _38  and  _40
REMARK   15  A    between atoms: _40  and  _41
REMARK   16  A    between atoms: _40  and  _43
REMARK   17  A    between atoms: _43  and  _44
REMARK   18  A    between atoms: _44  and  _45
REMARK   19  A    between atoms: _45  and  _46
REMARK   20  A    between atoms: _46  and  _47
REMARK   21  A    between atoms: _51  and  _53
REMARK   22  A    between atoms: _53  and  _54
REMARK   23  A    between atoms: _53  and  _56
REMARK   24  A    between atoms: _59  and  _61
REMARK   25  A    between atoms: _61  and  _62
REMARK   26  A    between atoms: _61  and  _64
REMARK   27  A    between atoms: _64  and  _65
REMARK   28  A    between atoms: _71  and  _73
REMARK   29  A    between atoms: _73  and  _74
REMARK   30  A    between atoms: _73  and  _76
REMARK   31  A    between atoms: _76  and  _77
REMARK   32  A    between atoms: _77  and  _78
REMARK   33  A    between atoms: _78  and  _79
REMARK   34  A    between atoms: _88  and  _90
REMARK   35  A    between atoms: _90  and  _91
REMARK   36  A    between atoms: _93  and  _95
REMARK   37  A    between atoms: _95  and  _96
REMARK   38  A    between atoms: _95  and  _98
REMARK   39  A    between atoms: _98  and  _99
REMARK   40  A    between atoms: _99  and  _100
REMARK   41  A    between atoms: _100  and  _101
REMARK   42  A    between atoms: _101  and  _102
REMARK   43  A    between atoms: _106  and  _108
REMARK   44  A    between atoms: _108  and  _109
REMARK   45  A    between atoms: _108  and  _111
REMARK   46  A    between atoms: _111  and  _112
REMARK   47  A    between atoms: _117  and  _118
REMARK   48  A    between atoms: _120  and  _122
REMARK   49  A    between atoms: _122  and  _123
REMARK   50  A    between atoms: _122  and  _125
REMARK   51  A    between atoms: _125  and  _126
REMARK   52  A    between atoms: _126  and  _127
REMARK   53  A    between atoms: _132  and  _134
REMARK   54  A    between atoms: _134  and  _135
REMARK   55  A    between atoms: _134  and  _137
REMARK   56  A    between atoms: _137  and  _138
REMARK   57  A    between atoms: _138  and  _139
REMARK   58  A    between atoms: _139  and  _140
REMARK   59  A    between atoms: _149  and  _151
REMARK   60  A    between atoms: _151  and  _152
REMARK   61  A    between atoms: _154  and  _156
REMARK   62  A    between atoms: _156  and  _157
REMARK   63  A    between atoms: _156  and  _159
REMARK   64  A    between atoms: _159  and  _160
REMARK   65  A    between atoms: _165  and  _167
REMARK   66  A    between atoms: _167  and  _168
REMARK   67  A    between atoms: _167  and  _170
REMARK   68  A    between atoms: _170  and  _171
REMARK   69  A    between atoms: _174  and  _176
REMARK   70  A    between atoms: _176  and  _177
REMARK   71  A    between atoms: _176  and  _179
REMARK   72  A    between atoms: _179  and  _180
REMARK   73  A    between atoms: _183  and  _185
REMARK   74  A    between atoms: _185  and  _186
REMARK   75  A    between atoms: _185  and  _188
REMARK   76  A    between atoms: _188  and  _189
REMARK   77  A    between atoms: _194  and  _196
REMARK   78  A    between atoms: _196  and  _197
REMARK   79  A    between atoms: _196  and  _199
REMARK   80  A    between atoms: _199  and  _200
REMARK   81  A    between atoms: _203  and  _205
REMARK   82  A    between atoms: _205  and  _206
REMARK   83  A    between atoms: _205  and  _208
REMARK   84  A    between atoms: _208  and  _209
REMARK   85  A    between atoms: _214  and  _216
REMARK   86  A    between atoms: _216  and  _217
REMARK   87  A    between atoms: _219  and  _221
REMARK   88  A    between atoms: _221  and  _222
REMARK   89  A    between atoms: _224  and  _226
REMARK   90  A    between atoms: _226  and  _227
REMARK   91  A    between atoms: _226  and  _229
REMARK   92  A    between atoms: _229  and  _230
REMARK   93  A    between atoms: _234  and  ZN_1038
REMARK   94  A    between atoms: _235  and  _237
REMARK   95  A    between atoms: _237  and  _238
REMARK   96  A    between atoms: _237  and  _240
REMARK   97  A    between atoms: _240  and  _241
REMARK   98  A    between atoms: _244  and  _246
REMARK   99  A    between atoms: _246  and  _247
REMARK  100  A    between atoms: _246  and  _249
REMARK  101  A    between atoms: _249  and  _250
REMARK  102  A    between atoms: _260  and  _262
REMARK  103  A    between atoms: _262  and  _263
REMARK  104  A    between atoms: _262  and  _265
REMARK  105  A    between atoms: _265  and  _266
REMARK  106  A    between atoms: _269  and  _271
REMARK  107  A    between atoms: _271  and  _272
REMARK  108  A    between atoms: _271  and  _274
REMARK  109  A    between atoms: _274  and  _275
REMARK  110  A    between atoms: _279  and  _280
REMARK  111  A    between atoms: _285  and  _287
REMARK  112  A    between atoms: _287  and  _288
REMARK  113  A    between atoms: _291  and  _293
REMARK  114  A    between atoms: _293  and  _294
REMARK  115  A    between atoms: _293  and  _296
REMARK  116  A    between atoms: _296  and  _297
REMARK  117  A    between atoms: _297  and  _298
REMARK  118  A    between atoms: _301  and  _303
REMARK  119  A    between atoms: _303  and  _304
REMARK  120  A    between atoms: _303  and  _306
REMARK  121  A    between atoms: _306  and  _307
REMARK  122  A    between atoms: _307  and  _308
REMARK  123  A    between atoms: _308  and  _310
REMARK  124  A    between atoms: _310  and  ZN_1037
REMARK  125  A    between atoms: _311  and  _313
REMARK  126  A    between atoms: _313  and  _314
REMARK  127  A    between atoms: _313  and  _316
REMARK  128  A    between atoms: _316  and  _317
REMARK  129  A    between atoms: _323  and  _325
REMARK  130  A    between atoms: _325  and  _326
REMARK  131  A    between atoms: _328  and  _330
REMARK  132  A    between atoms: _330  and  _331
REMARK  133  A    between atoms: _330  and  _333
REMARK  134  A    between atoms: _333  and  _334
REMARK  135  A    between atoms: _337  and  _339
REMARK  136  A    between atoms: _339  and  _340
REMARK  137  A    between atoms: _339  and  _342
REMARK  138  A    between atoms: _342  and  _343
REMARK  139  A    between atoms: _346  and  _348
REMARK  140  A    between atoms: _348  and  _349
REMARK  141  A    between atoms: _348  and  _351
REMARK  142  A    between atoms: _351  and  _352
REMARK  143  A    between atoms: _357  and  _359
REMARK  144  A    between atoms: _359  and  _360
REMARK  145  A    between atoms: _359  and  _362
REMARK  146  A    between atoms: _362  and  _363
REMARK  147  A    between atoms: _363  and  _365
REMARK  148  A    between atoms: _365  and  ZN_1038
REMARK  149  A    between atoms: _366  and  _368
REMARK  150  A    between atoms: _368  and  _369
REMARK  151  A    between atoms: _368  and  _371
REMARK  152  A    between atoms: _371  and  _372
REMARK  153  A    between atoms: _374  and  _376
REMARK  154  A    between atoms: _376  and  _377
REMARK  155  A    between atoms: _376  and  _379
REMARK  156  A    between atoms: _379  and  _380
REMARK  157  A    between atoms: _382  and  _384
REMARK  158  A    between atoms: _384  and  _385
REMARK  159  A    between atoms: _384  and  _387
REMARK  160  A    between atoms: _387  and  _388
REMARK  161  A    between atoms: _391  and  _393
REMARK  162  A    between atoms: _393  and  _394
REMARK  163  A    between atoms: _393  and  _396
REMARK  164  A    between atoms: _396  and  _397
REMARK  165  A    between atoms: _397  and  _398
REMARK  166  A    between atoms: _401  and  _403
REMARK  167  A    between atoms: _403  and  _404
REMARK  168  A    between atoms: _403  and  _406
REMARK  169  A    between atoms: _406  and  _407
REMARK  170  A    between atoms: _412  and  _413
REMARK  171  A    between atoms: _415  and  _417
REMARK  172  A    between atoms: _417  and  _418
REMARK  173  A    between atoms: _417  and  _420
REMARK  174  A    between atoms: _420  and  _421
REMARK  175  A    between atoms: _424  and  _426
REMARK  176  A    between atoms: _426  and  _427
REMARK  177  A    between atoms: _426  and  _429
REMARK  178  A    between atoms: _429  and  _430
REMARK  179  A    between atoms: _433  and  _435
REMARK  180  A    between atoms: _435  and  _436
REMARK  181  A    between atoms: _435  and  _438
REMARK  182  A    between atoms: _438  and  _439
REMARK  183  A    between atoms: _439  and  _440
REMARK  184  A    between atoms: _440  and  _441
REMARK  185  A    between atoms: _450  and  _452
REMARK  186  A    between atoms: _452  and  _453
REMARK  187  A    between atoms: _452  and  _455
REMARK  188  A    between atoms: _458  and  _460
REMARK  189  A    between atoms: _460  and  _461
REMARK  190  A    between atoms: _460  and  _463
REMARK  191  A    between atoms: _463  and  _464
REMARK  192  A    between atoms: _467  and  _469
REMARK  193  A    between atoms: _469  and  _470
REMARK  194  A    between atoms: _469  and  _472
REMARK  195  A    between atoms: _474  and  _476
REMARK  196  A    between atoms: _476  and  _477
REMARK  197  A    between atoms: _476  and  _479
REMARK  198  A    between atoms: _479  and  _480
REMARK  199  A    between atoms: _490  and  _492
REMARK  200  A    between atoms: _492  and  _493
REMARK  201  A    between atoms: _492  and  _495
REMARK  202  A    between atoms: _495  and  _496
REMARK  203  A    between atoms: _496  and  _497
REMARK  204  A    between atoms: _497  and  _498
REMARK  205  A    between atoms: _498  and  _499
REMARK  206  A    between atoms: _503  and  _505
REMARK  207  A    between atoms: _505  and  _506
REMARK  208  A    between atoms: _505  and  _508
REMARK  209  A    between atoms: _508  and  _509
REMARK  210  A    between atoms: _512  and  _513
REMARK  211  A    between atoms: _519  and  _520
REMARK  212  A    between atoms: _525  and  _527
REMARK  213  A    between atoms: _527  and  _528
REMARK  214  A    between atoms: _527  and  _530
REMARK  215  A    between atoms: _530  and  _531
REMARK  216  A    between atoms: _531  and  _532
REMARK  217  A    between atoms: _535  and  _537
REMARK  218  A    between atoms: _537  and  _538
REMARK  219  A    between atoms: _537  and  _540
REMARK  220  A    between atoms: _540  and  _541
REMARK  221  A    between atoms: _541  and  _542
REMARK  222  A    between atoms: _542  and  _543
REMARK  223  A    between atoms: _552  and  _554
REMARK  224  A    between atoms: _554  and  _555
REMARK  225  A    between atoms: _554  and  _557
REMARK  226  A    between atoms: _557  and  _558
REMARK  227  A    between atoms: _561  and  _563
REMARK  228  A    between atoms: _563  and  _564
REMARK  229  A    between atoms: _563  and  _566
REMARK  230  A    between atoms: _566  and  _567
REMARK  231  A    between atoms: _569  and  _571
REMARK  232  A    between atoms: _571  and  _572
REMARK  233  A    between atoms: _571  and  _574
REMARK  234  A    between atoms: _574  and  _575
REMARK  235  A    between atoms: _575  and  _576
REMARK  236  A    between atoms: _576  and  _577
REMARK  237  A    between atoms: _577  and  _578
REMARK  238  A    between atoms: _582  and  _584
REMARK  239  A    between atoms: _584  and  _585
REMARK  240  A    between atoms: _584  and  _587
REMARK  241  A    between atoms: _587  and  _588
REMARK  242  A    between atoms: _591  and  _593
REMARK  243  A    between atoms: _593  and  _594
REMARK  244  A    between atoms: _596  and  _598
REMARK  245  A    between atoms: _598  and  _599
REMARK  246  A    between atoms: _598  and  _601
REMARK  247  A    between atoms: _601  and  _602
REMARK  248  A    between atoms: _604  and  _606
REMARK  249  A    between atoms: _606  and  _607
REMARK  250  A    between atoms: _609  and  _611
REMARK  251  A    between atoms: _611  and  _612
REMARK  252  A    between atoms: _611  and  _614
REMARK  253  A    between atoms: _614  and  _615
REMARK  254  A    between atoms: _620  and  _622
REMARK  255  A    between atoms: _622  and  _623
REMARK  256  A    between atoms: _622  and  _625
REMARK  257  A    between atoms: _625  and  _626
REMARK  258  A    between atoms: _629  and  _631
REMARK  259  A    between atoms: _631  and  _632
REMARK  260  A    between atoms: _631  and  _634
REMARK  261  A    between atoms: _634  and  _635
REMARK  262  A    between atoms: _641  and  _643
REMARK  263  A    between atoms: _643  and  _644
REMARK  264  A    between atoms: _643  and  _646
REMARK  265  A    between atoms: _646  and  _647
REMARK  266  A    between atoms: _647  and  _648
REMARK  267  A    between atoms: _651  and  _653
REMARK  268  A    between atoms: _653  and  _654
REMARK  269  A    between atoms: _653  and  _656
REMARK  270  A    between atoms: _656  and  _657
REMARK  271  A    between atoms: _657  and  _658
REMARK  272  A    between atoms: _663  and  _665
REMARK  273  A    between atoms: _665  and  _666
REMARK  274  A    between atoms: _665  and  _668
REMARK  275  A    between atoms: _668  and  _669
REMARK  276  A    between atoms: _669  and  _670
REMARK  277  A    between atoms: _670  and  _671
REMARK  278  A    between atoms: _680  and  _682
REMARK  279  A    between atoms: _682  and  _683
REMARK  280  A    between atoms: _682  and  _685
REMARK  281  A    between atoms: _685  and  _686
REMARK  282  A    between atoms: _686  and  _687
REMARK  283  A    between atoms: _687  and  _688
REMARK  284  A    between atoms: _697  and  _699
REMARK  285  A    between atoms: _699  and  _700
REMARK  286  A    between atoms: _699  and  _702
REMARK  287  A    between atoms: _702  and  _703
REMARK  288  A    between atoms: _708  and  _709
REMARK  289  A    between atoms: _711  and  _713
REMARK  290  A    between atoms: _713  and  _714
REMARK  291  A    between atoms: _713  and  _716
REMARK  292  A    between atoms: _716  and  _717
REMARK  293  A    between atoms: _720  and  _722
REMARK  294  A    between atoms: _722  and  _723
REMARK  295  A    between atoms: _722  and  _725
REMARK  296  A    between atoms: _725  and  _726
REMARK  297  A    between atoms: _726  and  _727
REMARK  298  A    between atoms: _727  and  _728
REMARK  299  A    between atoms: _728  and  _729
REMARK  300  A    between atoms: _733  and  _735
REMARK  301  A    between atoms: _735  and  _736
REMARK  302  A    between atoms: _735  and  _738
REMARK  303  A    between atoms: _738  and  _739
REMARK  304  A    between atoms: _744  and  _746
REMARK  305  A    between atoms: _746  and  _747
REMARK  306  A    between atoms: _746  and  _749
REMARK  307  A    between atoms: _749  and  _750
REMARK  308  A    between atoms: _760  and  _762
REMARK  309  A    between atoms: _762  and  _763
REMARK  310  A    between atoms: _762  and  _765
REMARK  311  A    between atoms: _765  and  _766
REMARK  312  A    between atoms: _766  and  _767
REMARK  313  A    between atoms: _770  and  _772
REMARK  314  A    between atoms: _772  and  _773
REMARK  315  A    between atoms: _772  and  _775
REMARK  316  A    between atoms: _775  and  _776
REMARK  317  A    between atoms: _779  and  _781
REMARK  318  A    between atoms: _781  and  _782
REMARK  319  A    between atoms: _781  and  _784
REMARK  320  A    between atoms: _784  and  _785
REMARK  321  A    between atoms: _790  and  _792
REMARK  322  A    between atoms: _792  and  _793
REMARK  323  A    between atoms: _792  and  _795
REMARK  324  A    between atoms: _795  and  _796
REMARK  325  A    between atoms: _802  and  _804
REMARK  326  A    between atoms: _804  and  _805
REMARK  327  A    between atoms: _804  and  _807
REMARK  328  A    between atoms: _807  and  _808
REMARK  329  A    between atoms: _810  and  _812
REMARK  330  A    between atoms: _812  and  _813
REMARK  331  A    between atoms: _815  and  _817
REMARK  332  A    between atoms: _817  and  _818
REMARK  333  A    between atoms: _817  and  _820
REMARK  334  A    between atoms: _820  and  _821
REMARK  335  A    between atoms: _826  and  _827
REMARK  336  A    between atoms: _829  and  _831
REMARK  337  A    between atoms: _831  and  _832
REMARK  338  A    between atoms: _831  and  _834
REMARK  339  A    between atoms: _834  and  _835
REMARK  340  A    between atoms: _840  and  _841
REMARK  341  A    between atoms: _843  and  _845
REMARK  342  A    between atoms: _845  and  _846
REMARK  343  A    between atoms: _845  and  _848
REMARK  344  A    between atoms: _848  and  _849
REMARK  345  A    between atoms: _853  and  ZN_1037
REMARK  346  A    between atoms: _854  and  _856
REMARK  347  A    between atoms: _856  and  _857
REMARK  348  A    between atoms: _856  and  _859
REMARK  349  A    between atoms: _859  and  _860
REMARK  350  A    between atoms: _860  and  _861
REMARK  351  A    between atoms: _864  and  _866
REMARK  352  A    between atoms: _866  and  _867
REMARK  353  A    between atoms: _866  and  _869
REMARK  354  A    between atoms: _869  and  _870
REMARK  355  A    between atoms: _870  and  _871
REMARK  356  A    between atoms: _871  and  _872
REMARK  357  A    between atoms: _881  and  _883
REMARK  358  A    between atoms: _883  and  _884
REMARK  359  A    between atoms: _883  and  _886
REMARK  360  A    between atoms: _886  and  _887
REMARK  361  A    between atoms: _887  and  _888
REMARK  362  A    between atoms: _888  and  _889
REMARK  363  A    between atoms: _889  and  _890
REMARK  364  A    between atoms: _894  and  _896
REMARK  365  A    between atoms: _896  and  _897
REMARK  366  A    between atoms: _896  and  _899
REMARK  367  A    between atoms: _899  and  _900
REMARK  368  A    between atoms: _905  and  _906
REMARK  369  A    between atoms: _908  and  _910
REMARK  370  A    between atoms: _910  and  _911
REMARK  371  A    between atoms: _910  and  _913
REMARK  372  A    between atoms: _913  and  _914
REMARK  373  A    between atoms: _914  and  _915
REMARK  374  A    between atoms: _915  and  _916
REMARK  375  A    between atoms: _916  and  _917
REMARK  376  A    between atoms: _921  and  _923
REMARK  377  A    between atoms: _923  and  _924
REMARK  378  A    between atoms: _923  and  _926
REMARK  379  A    between atoms: _926  and  _927
REMARK  380  A    between atoms: _932  and  _933
REMARK  381  A    between atoms: _935  and  _937
REMARK  382  A    between atoms: _937  and  _938
REMARK  383  A    between atoms: _937  and  _940
REMARK  384  A    between atoms: _940  and  _941
REMARK  385  A    between atoms: _946  and  _947
REMARK  386  A    between atoms: _949  and  _951
REMARK  387  A    between atoms: _951  and  _952
REMARK  388  A    between atoms: _956  and  _957
REMARK  389  A    between atoms: _962  and  _964
REMARK  390  A    between atoms: _964  and  _965
REMARK  391  A    between atoms: _964  and  _967
REMARK  392  A    between atoms: _967  and  _968
REMARK  393  A    between atoms: _970  and  _972
REMARK  394  A    between atoms: _972  and  _973
REMARK  395  A    between atoms: _972  and  _975
REMARK  396  A    between atoms: _975  and  _976
REMARK  397  A    between atoms: _981  and  _983
REMARK  398  A    between atoms: _983  and  _984
REMARK  399  A    between atoms: _983  and  _986
REMARK  400  A    between atoms: _986  and  _987
REMARK  401  A    between atoms: _987  and  _988
REMARK  402  A    between atoms: _988  and  _989
REMARK  403  A    between atoms: _989  and  _990
REMARK  404  A    between atoms: _994  and  _996
REMARK  405  A    between atoms: _996  and  _997
REMARK  406  A    between atoms: _996  and  _999
REMARK  407  A    between atoms: _999  and  _1000
REMARK  408  A    between atoms: _1005  and  _1006
REMARK  409  A    between atoms: _1008  and  _1010
REMARK  410  A    between atoms: _1010  and  _1011
REMARK  411  A    between atoms: _1014  and  _1016
REMARK  412  A    between atoms: _1016  and  _1017
REMARK  413  A    between atoms: _1019  and  _1021
REMARK  414  A    between atoms: _1021  and  _1022
REMARK  415  A    between atoms: _1021  and  _1024
REMARK  416  A    between atoms: _1024  and  _1025
REMARK  417  A    between atoms: _1025  and  _1026
REMARK  418  A    between atoms: _1029  and  _1031
REMARK  419  A    between atoms: _1031  and  _1032
REMARK  420  A    between atoms: _1031  and  _1034
REMARK  421  A    between atoms: _1034  and  _1035
REMARK                            x       y       z     vdW  Elec       q    Type
REMARK                         _______ _______ _______ _____ _____    ______ ____
ROOT
ATOM      1  C   SER A   2      29.140  44.425  40.729  0.00  0.00    +0.243 C 
ATOM      2  N   GLY A   3      28.637  45.013  41.816  0.00  0.00    -0.295 N 
ATOM      3  H   GLY A   3      28.798  46.032  41.949  0.00  0.00    +0.150 HD
ATOM      4  O   SER A   2      28.929  43.241  40.433  0.00  0.00    -0.273 OA
ENDROOT
BRANCH   1   5
ATOM      5  CA  SER A   2      30.009  45.298  39.820  0.00  0.00    +0.178 C 
BRANCH   5   8
ATOM      6  C   PHE A   1      32.425  44.874  40.067  0.00  0.00    +0.239 C 
ATOM      7  O   PHE A   1      32.505  45.656  41.019  0.00  0.00    -0.274 OA
ATOM      8  N   SER A   2      31.276  44.634  39.432  0.00  0.00    -0.295 N 
ATOM      9  H   SER A   2      31.269  43.960  38.640  0.00  0.00    +0.150 HD
BRANCH   6  10
ATOM     10  CA  PHE A   1      33.670  44.135  39.544  0.00  0.00    +0.149 C 
BRANCH  10  11
ATOM     11  N   PHE A   1      34.929  44.781  39.924  0.00  0.00    -0.238 NA
ATOM     12  H   PHE A   1      35.591  44.284  40.554  0.00  0.00    +0.142 HD
ENDBRANCH  10  11
BRANCH  10  13
ATOM     13  CB  PHE A   1      33.671  42.651  39.939  0.00  0.00    +0.053 C 
BRANCH  13  14
ATOM     14  CG  PHE A   1      33.832  42.395  41.413  0.00  0.00    -0.020 A 
ATOM     15  CD2 PHE A   1      32.720  42.343  42.256  0.00  0.00    -0.004 A 
ATOM     16  CE2 PHE A   1      32.862  42.087  43.631  0.00  0.00    -0.000 A 
ATOM     17  CZ  PHE A   1      34.139  41.871  44.166  0.00  0.00    -0.000 A 
ATOM     18  CE1 PHE A   1      35.260  41.910  43.325  0.00  0.00    -0.000 A 
ATOM     19  CD1 PHE A   1      35.098  42.163  41.953  0.00  0.00    -0.004 A 
ENDBRANCH  13  14
ENDBRANCH  10  13
ENDBRANCH   6  10
ENDBRANCH   5   8
BRANCH   5  20
ATOM     20  CB  SER A   2      29.212  45.681  38.568  0.00  0.00    +0.166 C 
BRANCH  20  21
ATOM     21  OG  SER A   2      29.605  44.868  37.485  0.00  0.00    -0.380 OA
ATOM     22  H   SER A   2      30.571  44.996  37.311  0.00  0.00    +0.211 HD
ENDBRANCH  20  21
ENDBRANCH   5  20
ENDBRANCH   1   5
BRANCH   2  23
ATOM     23  CA  GLY A   3      27.859  44.280  42.842  0.00  0.00    +0.176 C 
BRANCH  23  24
ATOM     24  C   GLY A   3      28.679  43.100  43.350  0.00  0.00    +0.243 C 
ATOM     25  O   GLY A   3      29.871  43.244  43.596  0.00  0.00    -0.273 OA
ATOM     26  N   TYR A   4      28.059  41.925  43.483  0.00  0.00    -0.298 N 
ATOM     27  H   TYR A   4      27.022  41.885  43.420  0.00  0.00    +0.150 HD
BRANCH  26  28
ATOM     28  CA  TYR A   4      28.813  40.691  43.716  0.00  0.00    +0.141 C 
BRANCH  28  29
ATOM     29  C   TYR A   4      28.681  39.765  42.491  0.00  0.00    +0.227 C 
ATOM     30  O   TYR A   4      27.665  39.798  41.784  0.00  0.00    -0.286 OA
ENDBRANCH  28  29
BRANCH  28  31
ATOM     31  CB  TYR A   4      28.358  39.977  44.994  0.00  0.00    +0.054 C 
BRANCH  31  32
ATOM     32  CG  TYR A   4      26.880  39.689  45.073  0.00  0.00    -0.020 A 
ATOM     33  CD2 TYR A   4      25.964  40.691  45.447  0.00  0.00    -0.001 A 
ATOM     34  CE2 TYR A   4      24.609  40.405  45.470  0.00  0.00    +0.036 A 
ATOM     35  CZ  TYR A   4      24.147  39.156  45.186  0.00  0.00    +0.134 A 
ATOM     36  CE1 TYR A   4      25.003  38.136  44.833  0.00  0.00    +0.036 A 
ATOM     37  CD1 TYR A   4      26.377  38.422  44.781  0.00  0.00    -0.001 A 
BRANCH  35  38
ATOM     38  OH  TYR A   4      22.797  38.921  45.202  0.00  0.00    -0.506 OA
ATOM     39  HH  TYR A   4      22.626  37.972  44.976  0.00  0.00    +0.292 HD
ENDBRANCH  35  38
ENDBRANCH  31  32
ENDBRANCH  28  31
ENDBRANCH  26  28
ENDBRANCH  23  24
ENDBRANCH   2  23
TORSDOF 15
REMARK  Name = ../refined-set-2016/2xef/2xef_pocket.pdb
REMARK  421 active torsions:
REMARK  status: ('A' for Active; 'I' for Inactive)
REMARK    1  A    between atoms: _1  and  _3
REMARK    2  A    between atoms: _3  and  _4
REMARK    3  A    between atoms: _7  and  _9
REMARK    4  A    between atoms: _9  and  _10
REMARK    5  A    between atoms: _9  and  _12
REMARK    6  A    between atoms: _12  and  _13
REMARK    7  A    between atoms: _19  and  _21
REMARK    8  A    between atoms: _21  and  _22
REMARK    9  A    between atoms: _21  and  _24
REMARK   10  A    between atoms: _24  and  _25
REMARK   11  A    between atoms: _30  and  _31
REMARK   12  A    between atoms: _33  and  _35
REMARK   13  A    between atoms: _35  and  _36
REMARK   14  A    between atoms: _38  and  _40
REMARK   15  A    between atoms: _40  and  _41
REMARK   16  A    between atoms: _40  and  _43
REMARK   17  A    between atoms: _43  and  _44
REMARK   18  A    between atoms: _44  and  _45
REMARK   19  A    between atoms: _45  and  _46
REMARK   20  A    between atoms: _46  and  _47
REMARK   21  A    between atoms: _51  and  _53
REMARK   22  A    between atoms: _53  and  _54
REMARK   23  A    between atoms: _53  and  _56
REMARK   24  A    between atoms: _59  and  _61
REMARK   25  A    between atoms: _61  and  _62
REMARK   26  A    between atoms: _61  and  _64
REMARK   27  A    between atoms: _64  and  _65
REMARK   28  A    between atoms: _71  and  _73
REMARK   29  A    between atoms: _73  and  _74
REMARK   30  A    between atoms: _73  and  _76
REMARK   31  A    between atoms: _76  and  _77
REMARK   32  A    between atoms: _77  and  _78
REMARK   33  A    between atoms: _78  and  _79
REMARK   34  A    between atoms: _88  and  _90
REMARK   35  A    between atoms: _90  and  _91
REMARK   36  A    between atoms: _93  and  _95
REMARK   37  A    between atoms: _95  and  _96
REMARK   38  A    between atoms: _95  and  _98
REMARK   39  A    between atoms: _98  and  _99
REMARK   40  A    between atoms: _99  and  _100
REMARK   41  A    between atoms: _100  and  _101
REMARK   42  A    between atoms: _101  and  _102
REMARK   43  A    between atoms: _106  and  _108
REMARK   44  A    between atoms: _108  and  _109
REMARK   45  A    between atoms: _108  and  _111
REMARK   46  A    between atoms: _111  and  _112
REMARK   47  A    between atoms: _117  and  _118
REMARK   48  A    between atoms: _120  and  _122
REMARK   49  A    between atoms: _122  and  _123
REMARK   50  A    between atoms: _122  and  _125
REMARK   51  A    between atoms: _125  and  _126
REMARK   52  A    between atoms: _126  and  _127
REMARK   53  A    between atoms: _132  and  _134
REMARK   54  A    between atoms: _134  and  _135
REMARK   55  A    between atoms: _134  and  _137
REMARK   56  A    between atoms: _137  and  _138
REMARK   57  A    between atoms: _138  and  _139
REMARK   58  A    between atoms: _139  and  _140
REMARK   59  A    between atoms: _149  and  _151
REMARK   60  A    between atoms: _151  and  _152
REMARK   61  A    between atoms: _154  and  _156
REMARK   62  A    between atoms: _156  and  _157
REMARK   63  A    between atoms: _156  and  _159
REMARK   64  A    between atoms: _159  and  _160
REMARK   65  A    between atoms: _165  and  _167
REMARK   66  A    between atoms: _167  and  _168
REMARK   67  A    between atoms: _167  and  _170
REMARK   68  A    between atoms: _170  and  _171
REMARK   69  A    between atoms: _174  and  _176
REMARK   70  A    between atoms: _176  and  _177
REMARK   71  A    between atoms: _176  and  _179
REMARK   72  A    between atoms: _179  and  _180
REMARK   73  A    between atoms: _183  and  _185
REMARK   74  A    between atoms: _185  and  _186
REMARK   75  A    between atoms: _185  and  _188
REMARK   76  A    between atoms: _188  and  _189
REMARK   77  A    between atoms: _194  and  _196
REMARK   78  A    between atoms: _196  and  _197
REMARK   79  A    between atoms: _196  and  _199
REMARK   80  A    between atoms: _199  and  _200
REMARK   81  A    between atoms: _203  and  _205
REMARK   82  A    between atoms: _205  and  _206
REMARK   83  A    between atoms: _205  and  _208
REMARK   84  A    between atoms: _208  and  _209
REMARK   85  A    between atoms: _214  and  _216
REMARK   86  A    between atoms: _216  and  _217
REMARK   87  A    between atoms: _219  and  _221
REMARK   88  A    between atoms: _221  and  _222
REMARK   89  A    between atoms: _224  and  _226
REMARK   90  A    between atoms: _226  and  _227
REMARK   91  A    between atoms: _226  and  _229
REMARK   92  A    between atoms: _229  and  _230
REMARK   93  A    between atoms: _234  and  ZN_1038
REMARK   94  A    between atoms: _235  and  _237
REMARK   95  A    between atoms: _237  and  _238
REMARK   96  A    between atoms: _237  and  _240
REMARK   97  A    between atoms: _240  and  _241
REMARK   98  A    between atoms: _244  and  _246
REMARK   99  A    between atoms: _246  and  _247
REMARK  100  A    between atoms: _246  and  _249
REMARK  101  A    between atoms: _249  and  _250
REMARK  102  A    between atoms: _260  and  _262
REMARK  103  A    between atoms: _262  and  _263
REMARK  104  A    between atoms: _262  and  _265
REMARK  105  A    between atoms: _265  and  _266
REMARK  106  A    between atoms: _269  and  _271
REMARK  107  A    between atoms: _271  and  _272
REMARK  108  A    between atoms: _271  and  _274
REMARK  109  A    between atoms: _274  and  _275
REMARK  110  A    between atoms: _279  and  _280
REMARK  111  A    between atoms: _285  and  _287
REMARK  112  A    between atoms: _287  and  _288
REMARK  113  A    between atoms: _291  and  _293
REMARK  114  A    between atoms: _293  and  _294
REMARK  115  A    between atoms: _293  and  _296
REMARK  116  A    between atoms: _296  and  _297
REMARK  117  A    between atoms: _297  and  _298
REMARK  118  A    between atoms: _301  and  _303
REMARK  119  A    between atoms: _303  and  _304
REMARK  120  A    between atoms: _303  and  _306
REMARK  121  A    between atoms: _306  and  _307
REMARK  122  A    between atoms: _307  and  _308
REMARK  123  A    between atoms: _308  and  _310
REMARK  124  A    between atoms: _310  and  ZN_1037
REMARK  125  A    between atoms: _311  and  _313
REMARK  126  A    between atoms: _313  and  _314
REMARK  127  A    between atoms: _313  and  _316
REMARK  128  A    between atoms: _316  and  _317
REMARK  129  A    between atoms: _323  and  _325
REMARK  130  A    between atoms: _325  and  _326
REMARK  131  A    between atoms: _328  and  _330
REMARK  132  A    between atoms: _330  and  _331
REMARK  133  A    between atoms: _330  and  _333
REMARK  134  A    between atoms: _333  and  _334
REMARK  135  A    between atoms: _337  and  _339
REMARK  136  A    between atoms: _339  and  _340
REMARK  137  A    between atoms: _339  and  _342
REMARK  138  A    between atoms: _342  and  _343
REMARK  139  A    between atoms: _346  and  _348
REMARK  140  A    between atoms: _348  and  _349
REMARK  141  A    between atoms: _348  and  _351
REMARK  142  A    between atoms: _351  and  _352
REMARK  143  A    between atoms: _357  and  _359
REMARK  144  A    between atoms: _359  and  _360
REMARK  145  A    between atoms: _359  and  _362
REMARK  146  A    between atoms: _362  and  _363
REMARK  147  A    between atoms: _363  and  _365
REMARK  148  A    between atoms: _365  and  ZN_1038
REMARK  149  A    between atoms: _366  and  _368
REMARK  150  A    between atoms: _368  and  _369
REMARK  151  A    between atoms: _368  and  _371
REMARK  152  A    between atoms: _371  and  _372
REMARK  153  A    between atoms: _374  and  _376
REMARK  154  A    between atoms: _376  and  _377
REMARK  155  A    between atoms: _376  and  _379
REMARK  156  A    between atoms: _379  and  _380
REMARK  157  A    between atoms: _382  and  _384
REMARK  158  A    between atoms: _384  and  _385
REMARK  159  A    between atoms: _384  and  _387
REMARK  160  A    between atoms: _387  and  _388
REMARK  161  A    between atoms: _391  and  _393
REMARK  162  A    between atoms: _393  and  _394
REMARK  163  A    between atoms: _393  and  _396
REMARK  164  A    between atoms: _396  and  _397
REMARK  165  A    between atoms: _397  and  _398
REMARK  166  A    between atoms: _401  and  _403
REMARK  167  A    between atoms: _403  and  _404
REMARK  168  A    between atoms: _403  and  _406
REMARK  169  A    between atoms: _406  and  _407
REMARK  170  A    between atoms: _412  and  _413
REMARK  171  A    between atoms: _415  and  _417
REMARK  172  A    between atoms: _417  and  _418
REMARK  173  A    between atoms: _417  and  _420
REMARK  174  A    between atoms: _420  and  _421
REMARK  175  A    between atoms: _424  and  _426
REMARK  176  A    between atoms: _426  and  _427
REMARK  177  A    between atoms: _426  and  _429
REMARK  178  A    between atoms: _429  and  _430
REMARK  179  A    between atoms: _433  and  _435
REMARK  180  A    between atoms: _435  and  _436
REMARK  181  A    between atoms: _435  and  _438
REMARK  182  A    between atoms: _438  and  _439
REMARK  183  A    between atoms: _439  and  _440
REMARK  184  A    between atoms: _440  and  _441
REMARK  185  A    between atoms: _450  and  _452
REMARK  186  A    between atoms: _452  and  _453
REMARK  187  A    between atoms: _452  and  _455
REMARK  188  A    between atoms: _458  and  _460
REMARK  189  A    between atoms: _460  and  _461
REMARK  190  A    between atoms: _460  and  _463
REMARK  191  A    between atoms: _463  and  _464
REMARK  192  A    between atoms: _467  and  _469
REMARK  193  A    between atoms: _469  and  _470
REMARK  194  A    between atoms: _469  and  _472
REMARK  195  A    between atoms: _474  and  _476
REMARK  196  A    between atoms: _476  and  _477
REMARK  197  A    between atoms: _476  and  _479
REMARK  198  A    between atoms: _479  and  _480
REMARK  199  A    between atoms: _490  and  _492
REMARK  200  A    between atoms: _492  and  _493
REMARK  201  A    between atoms: _492  and  _495
REMARK  202  A    between atoms: _495  and  _496
REMARK  203  A    between atoms: _496  and  _497
REMARK  204  A    between atoms: _497  and  _498
REMARK  205  A    between atoms: _498  and  _499
REMARK  206  A    between atoms: _503  and  _505
REMARK  207  A    between atoms: _505  and  _506
REMARK  208  A    between atoms: _505  and  _508
REMARK  209  A    between atoms: _508  and  _509
REMARK  210  A    between atoms: _512  and  _513
REMARK  211  A    between atoms: _519  and  _520
REMARK  212  A    between atoms: _525  and  _527
REMARK  213  A    between atoms: _527  and  _528
REMARK  214  A    between atoms: _527  and  _530
REMARK  215  A    between atoms: _530  and  _531
REMARK  216  A    between atoms: _531  and  _532
REMARK  217  A    between atoms: _535  and  _537
REMARK  218  A    between atoms: _537  and  _538
REMARK  219  A    between atoms: _537  and  _540
REMARK  220  A    between atoms: _540  and  _541
REMARK  221  A    between atoms: _541  and  _542
REMARK  222  A    between atoms: _542  and  _543
REMARK  223  A    between atoms: _552  and  _554
REMARK  224  A    between atoms: _554  and  _555
REMARK  225  A    between atoms: _554  and  _557
REMARK  226  A    between atoms: _557  and  _558
REMARK  227  A    between atoms: _561  and  _563
REMARK  228  A    between atoms: _563  and  _564
REMARK  229  A    between atoms: _563  and  _566
REMARK  230  A    between atoms: _566  and  _567
REMARK  231  A    between atoms: _569  and  _571
REMARK  232  A    between atoms: _571  and  _572
REMARK  233  A    between atoms: _571  and  _574
REMARK  234  A    between atoms: _574  and  _575
REMARK  235  A    between atoms: _575  and  _576
REMARK  236  A    between atoms: _576  and  _577
REMARK  237  A    between atoms: _577  and  _578
REMARK  238  A    between atoms: _582  and  _584
REMARK  239  A    between atoms: _584  and  _585
REMARK  240  A    between atoms: _584  and  _587
REMARK  241  A    between atoms: _587  and  _588
REMARK  242  A    between atoms: _591  and  _593
REMARK  243  A    between atoms: _593  and  _594
REMARK  244  A    between atoms: _596  and  _598
REMARK  245  A    between atoms: _598  and  _599
REMARK  246  A    between atoms: _598  and  _601
REMARK  247  A    between atoms: _601  and  _602
REMARK  248  A    between atoms: _604  and  _606
REMARK  249  A    between atoms: _606  and  _607
REMARK  250  A    between atoms: _609  and  _611
REMARK  251  A    between atoms: _611  and  _612
REMARK  252  A    between atoms: _611  and  _614
REMARK  253  A    between atoms: _614  and  _615
REMARK  254  A    between atoms: _620  and  _622
REMARK  255  A    between atoms: _622  and  _623
REMARK  256  A    between atoms: _622  and  _625
REMARK  257  A    between atoms: _625  and  _626
REMARK  258  A    between atoms: _629  and  _631
REMARK  259  A    between atoms: _631  and  _632
REMARK  260  A    between atoms: _631  and  _634
REMARK  261  A    between atoms: _634  and  _635
REMARK  262  A    between atoms: _641  and  _643
REMARK  263  A    between atoms: _643  and  _644
REMARK  264  A    between atoms: _643  and  _646
REMARK  265  A    between atoms: _646  and  _647
REMARK  266  A    between atoms: _647  and  _648
REMARK  267  A    between atoms: _651  and  _653
REMARK  268  A    between atoms: _653  and  _654
REMARK  269  A    between atoms: _653  and  _656
REMARK  270  A    between atoms: _656  and  _657
REMARK  271  A    between atoms: _657  and  _658
REMARK  272  A    between atoms: _663  and  _665
REMARK  273  A    between atoms: _665  and  _666
REMARK  274  A    between atoms: _665  and  _668
REMARK  275  A    between atoms: _668  and  _669
REMARK  276  A    between atoms: _669  and  _670
REMARK  277  A    between atoms: _670  and  _671
REMARK  278  A    between atoms: _680  and  _682
REMARK  279  A    between atoms: _682  and  _683
REMARK  280  A    between atoms: _682  and  _685
REMARK  281  A    between atoms: _685  and  _686
REMARK  282  A    between atoms: _686  and  _687
REMARK  283  A    between atoms: _687  and  _688
REMARK  284  A    between atoms: _697  and  _699
REMARK  285  A    between atoms: _699  and  _700
REMARK  286  A    between atoms: _699  and  _702
REMARK  287  A    between atoms: _702  and  _703
REMARK  288  A    between atoms: _708  and  _709
REMARK  289  A    between atoms: _711  and  _713
REMARK  290  A    between atoms: _713  and  _714
REMARK  291  A    between atoms: _713  and  _716
REMARK  292  A    between atoms: _716  and  _717
REMARK  293  A    between atoms: _720  and  _722
REMARK  294  A    between atoms: _722  and  _723
REMARK  295  A    between atoms: _722  and  _725
REMARK  296  A    between atoms: _725  and  _726
REMARK  297  A    between atoms: _726  and  _727
REMARK  298  A    between atoms: _727  and  _728
REMARK  299  A    between atoms: _728  and  _729
REMARK  300  A    between atoms: _733  and  _735
REMARK  301  A    between atoms: _735  and  _736
REMARK  302  A    between atoms: _735  and  _738
REMARK  303  A    between atoms: _738  and  _739
REMARK  304  A    between atoms: _744  and  _746
REMARK  305  A    between atoms: _746  and  _747
REMARK  306  A    between atoms: _746  and  _749
REMARK  307  A    between atoms: _749  and  _750
REMARK  308  A    between atoms: _760  and  _762
REMARK  309  A    between atoms: _762  and  _763
REMARK  310  A    between atoms: _762  and  _765
REMARK  311  A    between atoms: _765  and  _766
REMARK  312  A    between atoms: _766  and  _767
REMARK  313  A    between atoms: _770  and  _772
REMARK  314  A    between atoms: _772  and  _773
REMARK  315  A    between atoms: _772  and  _775
REMARK  316  A    between atoms: _775  and  _776
REMARK  317  A    between atoms: _779  and  _781
REMARK  318  A    between atoms: _781  and  _782
REMARK  319  A    between atoms: _781  and  _784
REMARK  320  A    between atoms: _784  and  _785
REMARK  321  A    between atoms: _790  and  _792
REMARK  322  A    between atoms: _792  and  _793
REMARK  323  A    between atoms: _792  and  _795
REMARK  324  A    between atoms: _795  and  _796
REMARK  325  A    between atoms: _802  and  _804
REMARK  326  A    between atoms: _804  and  _805
REMARK  327  A    between atoms: _804  and  _807
REMARK  328  A    between atoms: _807  and  _808
REMARK  329  A    between atoms: _810  and  _812
REMARK  330  A    between atoms: _812  and  _813
REMARK  331  A    between atoms: _815  and  _817
REMARK  332  A    between atoms: _817  and  _818
REMARK  333  A    between atoms: _817  and  _820
REMARK  334  A    between atoms: _820  and  _821
REMARK  335  A    between atoms: _826  and  _827
REMARK  336  A    between atoms: _829  and  _831
REMARK  337  A    between atoms: _831  and  _832
REMARK  338  A    between atoms: _831  and  _834
REMARK  339  A    between atoms: _834  and  _835
REMARK  340  A    between atoms: _840  and  _841
REMARK  341  A    between atoms: _843  and  _845
REMARK  342  A    between atoms: _845  and  _846
REMARK  343  A    between atoms: _845  and  _848
REMARK  344  A    between atoms: _848  and  _849
REMARK  345  A    between atoms: _853  and  ZN_1037
REMARK  346  A    between atoms: _854  and  _856
REMARK  347  A    between atoms: _856  and  _857
REMARK  348  A    between atoms: _856  and  _859
REMARK  349  A    between atoms: _859  and  _860
REMARK  350  A    between atoms: _860  and  _861
REMARK  351  A    between atoms: _864  and  _866
REMARK  352  A    between atoms: _866  and  _867
REMARK  353  A    between atoms: _866  and  _869
REMARK  354  A    between atoms: _869  and  _870
REMARK  355  A    between atoms: _870  and  _871
REMARK  356  A    between atoms: _871  and  _872
REMARK  357  A    between atoms: _881  and  _883
REMARK  358  A    between atoms: _883  and  _884
REMARK  359  A    between atoms: _883  and  _886
REMARK  360  A    between atoms: _886  and  _887
REMARK  361  A    between atoms: _887  and  _888
REMARK  362  A    between atoms: _888  and  _889
REMARK  363  A    between atoms: _889  and  _890
REMARK  364  A    between atoms: _894  and  _896
REMARK  365  A    between atoms: _896  and  _897
REMARK  366  A    between atoms: _896  and  _899
REMARK  367  A    between atoms: _899  and  _900
REMARK  368  A    between atoms: _905  and  _906
REMARK  369  A    between atoms: _908  and  _910
REMARK  370  A    between atoms: _910  and  _911
REMARK  371  A    between atoms: _910  and  _913
REMARK  372  A    between atoms: _913  and  _914
REMARK  373  A    between atoms: _914  and  _915
REMARK  374  A    between atoms: _915  and  _916
REMARK  375  A    between atoms: _916  and  _917
REMARK  376  A    between atoms: _921  and  _923
REMARK  377  A    between atoms: _923  and  _924
REMARK  378  A    between atoms: _923  and  _926
REMARK  379  A    between atoms: _926  and  _927
REMARK  380  A    between atoms: _932  and  _933
REMARK  381  A    between atoms: _935  and  _937
REMARK  382  A    between atoms: _937  and  _938
REMARK  383  A    between atoms: _937  and  _940
REMARK  384  A    between atoms: _940  and  _941
REMARK  385  A    between atoms: _946  and  _947
REMARK  386  A    between atoms: _949  and  _951
REMARK  387  A    between atoms: _951  and  _952
REMARK  388  A    between atoms: _956  and  _957
REMARK  389  A    between atoms: _962  and  _964
REMARK  390  A    between atoms: _964  and  _965
REMARK  391  A    between atoms: _964  and  _967
REMARK  392  A    between atoms: _967  and  _968
REMARK  393  A    between atoms: _970  and  _972
REMARK  394  A    between atoms: _972  and  _973
REMARK  395  A    between atoms: _972  and  _975
REMARK  396  A    between atoms: _975  and  _976
REMARK  397  A    between atoms: _981  and  _983
REMARK  398  A    between atoms: _983  and  _984
REMARK  399  A    between atoms: _983  and  _986
REMARK  400  A    between atoms: _986  and  _987
REMARK  401  A    between atoms: _987  and  _988
REMARK  402  A    between atoms: _988  and  _989
REMARK  403  A    between atoms: _989  and  _990
REMARK  404  A    between atoms: _994  and  _996
REMARK  405  A    between atoms: _996  and  _997
REMARK  406  A    between atoms: _996  and  _999
REMARK  407  A    between atoms: _999  and  _1000
REMARK  408  A    between atoms: _1005  and  _1006
REMARK  409  A    between atoms: _1008  and  _1010
REMARK  410  A    between atoms: _1010  and  _1011
REMARK  411  A    between atoms: _1014  and  _1016
REMARK  412  A    between atoms: _1016  and  _1017
REMARK  413  A    between atoms: _1019  and  _1021
REMARK  414  A    between atoms: _1021  and  _1022
REMARK  415  A    between atoms: _1021  and  _1024
REMARK  416  A    between atoms: _1024  and  _1025
REMARK  417  A    between atoms: _1025  and  _1026
REMARK  418  A    between atoms: _1029  and  _1031
REMARK  419  A    between atoms: _1031  and  _1032
REMARK  420  A    between atoms: _1031  and  _1034
REMARK  421  A    between atoms: _1034  and  _1035
REMARK                            x       y       z     vdW  Elec       q    Type
REMARK                         _______ _______ _______ _____ _____    ______ ____
ROOT
ATOM      1  CA  GLU A   1      23.546  32.296  44.852  0.00  0.00    +0.134 C 
ENDROOT
BRANCH   1   2
ATOM      2  N   GLU A   1      23.768  31.553  43.596  0.00  0.00    -0.239 NA
ATOM      3  H   GLU A   1      23.158  31.753  42.778  0.00  0.00    +0.142 HD
ENDBRANCH   1   2
BRANCH   1   4
ATOM      4  C   GLU A   1      22.812  31.405  45.848  0.00  0.00    +0.224 C 
ATOM      5  O   GLU A   1      21.568  31.346  45.836  0.00  0.00    -0.287 OA
ENDBRANCH   1   4
BRANCH   1   6
ATOM      6  CB  GLU A   1      22.598  33.476  44.554  0.00  0.00    +0.037 C 
BRANCH   6   7
ATOM      7  CG  GLU A   1      23.218  34.740  44.555  0.00  0.00    +0.116 C 
BRANCH   7   8
ATOM      8  CD  GLU A   1      22.148  35.802  44.819  0.00  0.00    +0.365 C 
ATOM      9  OE2 GLU A   1      21.593  35.736  45.912  0.00  0.00    -0.246 OA
ATOM     10  OE1 GLU A   1      21.858  36.617  43.922  0.00  0.00    -0.246 OA
ENDBRANCH   7   8
ENDBRANCH   6   7
ENDBRANCH   1   6
TORSDOF 5
REMARK  Name = ../refined-set-2016/2xef/2xef_pocket.pdb
REMARK  421 active torsions:
REMARK  status: ('A' for Active; 'I' for Inactive)
REMARK    1  A    between atoms: _1  and  _3
REMARK    2  A    between atoms: _3  and  _4
REMARK    3  A    between atoms: _7  and  _9
REMARK    4  A    between atoms: _9  and  _10
REMARK    5  A    between atoms: _9  and  _12
REMARK    6  A    between atoms: _12  and  _13
REMARK    7  A    between atoms: _19  and  _21
REMARK    8  A    between atoms: _21  and  _22
REMARK    9  A    between atoms: _21  and  _24
REMARK   10  A    between atoms: _24  and  _25
REMARK   11  A    between atoms: _30  and  _31
REMARK   12  A    between atoms: _33  and  _35
REMARK   13  A    between atoms: _35  and  _36
REMARK   14  A    between atoms: _38  and  _40
REMARK   15  A    between atoms: _40  and  _41
REMARK   16  A    between atoms: _40  and  _43
REMARK   17  A    between atoms: _43  and  _44
REMARK   18  A    between atoms: _44  and  _45
REMARK   19  A    between atoms: _45  and  _46
REMARK   20  A    between atoms: _46  and  _47
REMARK   21  A    between atoms: _51  and  _53
REMARK   22  A    between atoms: _53  and  _54
REMARK   23  A    between atoms: _53  and  _56
REMARK   24  A    between atoms: _59  and  _61
REMARK   25  A    between atoms: _61  and  _62
REMARK   26  A    between atoms: _61  and  _64
REMARK   27  A    between atoms: _64  and  _65
REMARK   28  A    between atoms: _71  and  _73
REMARK   29  A    between atoms: _73  and  _74
REMARK   30  A    between atoms: _73  and  _76
REMARK   31  A    between atoms: _76  and  _77
REMARK   32  A    between atoms: _77  and  _78
REMARK   33  A    between atoms: _78  and  _79
REMARK   34  A    between atoms: _88  and  _90
REMARK   35  A    between atoms: _90  and  _91
REMARK   36  A    between atoms: _93  and  _95
REMARK   37  A    between atoms: _95  and  _96
REMARK   38  A    between atoms: _95  and  _98
REMARK   39  A    between atoms: _98  and  _99
REMARK   40  A    between atoms: _99  and  _100
REMARK   41  A    between atoms: _100  and  _101
REMARK   42  A    between atoms: _101  and  _102
REMARK   43  A    between atoms: _106  and  _108
REMARK   44  A    between atoms: _108  and  _109
REMARK   45  A    between atoms: _108  and  _111
REMARK   46  A    between atoms: _111  and  _112
REMARK   47  A    between atoms: _117  and  _118
REMARK   48  A    between atoms: _120  and  _122
REMARK   49  A    between atoms: _122  and  _123
REMARK   50  A    between atoms: _122  and  _125
REMARK   51  A    between atoms: _125  and  _126
REMARK   52  A    between atoms: _126  and  _127
REMARK   53  A    between atoms: _132  and  _134
REMARK   54  A    between atoms: _134  and  _135
REMARK   55  A    between atoms: _134  and  _137
REMARK   56  A    between atoms: _137  and  _138
REMARK   57  A    between atoms: _138  and  _139
REMARK   58  A    between atoms: _139  and  _140
REMARK   59  A    between atoms: _149  and  _151
REMARK   60  A    between atoms: _151  and  _152
REMARK   61  A    between atoms: _154  and  _156
REMARK   62  A    between atoms: _156  and  _157
REMARK   63  A    between atoms: _156  and  _159
REMARK   64  A    between atoms: _159  and  _160
REMARK   65  A    between atoms: _165  and  _167
REMARK   66  A    between atoms: _167  and  _168
REMARK   67  A    between atoms: _167  and  _170
REMARK   68  A    between atoms: _170  and  _171
REMARK   69  A    between atoms: _174  and  _176
REMARK   70  A    between atoms: _176  and  _177
REMARK   71  A    between atoms: _176  and  _179
REMARK   72  A    between atoms: _179  and  _180
REMARK   73  A    between atoms: _183  and  _185
REMARK   74  A    between atoms: _185  and  _186
REMARK   75  A    between atoms: _185  and  _188
REMARK   76  A    between atoms: _188  and  _189
REMARK   77  A    between atoms: _194  and  _196
REMARK   78  A    between atoms: _196  and  _197
REMARK   79  A    between atoms: _196  and  _199
REMARK   80  A    between atoms: _199  and  _200
REMARK   81  A    between atoms: _203  and  _205
REMARK   82  A    between atoms: _205  and  _206
REMARK   83  A    between atoms: _205  and  _208
REMARK   84  A    between atoms: _208  and  _209
REMARK   85  A    between atoms: _214  and  _216
REMARK   86  A    between atoms: _216  and  _217
REMARK   87  A    between atoms: _219  and  _221
REMARK   88  A    between atoms: _221  and  _222
REMARK   89  A    between atoms: _224  and  _226
REMARK   90  A    between atoms: _226  and  _227
REMARK   91  A    between atoms: _226  and  _229
REMARK   92  A    between atoms: _229  and  _230
REMARK   93  A    between atoms: _234  and  ZN_1038
REMARK   94  A    between atoms: _235  and  _237
REMARK   95  A    between atoms: _237  and  _238
REMARK   96  A    between atoms: _237  and  _240
REMARK   97  A    between atoms: _240  and  _241
REMARK   98  A    between atoms: _244  and  _246
REMARK   99  A    between atoms: _246  and  _247
REMARK  100  A    between atoms: _246  and  _249
REMARK  101  A    between atoms: _249  and  _250
REMARK  102  A    between atoms: _260  and  _262
REMARK  103  A    between atoms: _262  and  _263
REMARK  104  A    between atoms: _262  and  _265
REMARK  105  A    between atoms: _265  and  _266
REMARK  106  A    between atoms: _269  and  _271
REMARK  107  A    between atoms: _271  and  _272
REMARK  108  A    between atoms: _271  and  _274
REMARK  109  A    between atoms: _274  and  _275
REMARK  110  A    between atoms: _279  and  _280
REMARK  111  A    between atoms: _285  and  _287
REMARK  112  A    between atoms: _287  and  _288
REMARK  113  A    between atoms: _291  and  _293
REMARK  114  A    between atoms: _293  and  _294
REMARK  115  A    between atoms: _293  and  _296
REMARK  116  A    between atoms: _296  and  _297
REMARK  117  A    between atoms: _297  and  _298
REMARK  118  A    between atoms: _301  and  _303
REMARK  119  A    between atoms: _303  and  _304
REMARK  120  A    between atoms: _303  and  _306
REMARK  121  A    between atoms: _306  and  _307
REMARK  122  A    between atoms: _307  and  _308
REMARK  123  A    between atoms: _308  and  _310
REMARK  124  A    between atoms: _310  and  ZN_1037
REMARK  125  A    between atoms: _311  and  _313
REMARK  126  A    between atoms: _313  and  _314
REMARK  127  A    between atoms: _313  and  _316
REMARK  128  A    between atoms: _316  and  _317
REMARK  129  A    between atoms: _323  and  _325
REMARK  130  A    between atoms: _325  and  _326
REMARK  131  A    between atoms: _328  and  _330
REMARK  132  A    between atoms: _330  and  _331
REMARK  133  A    between atoms: _330  and  _333
REMARK  134  A    between atoms: _333  and  _334
REMARK  135  A    between atoms: _337  and  _339
REMARK  136  A    between atoms: _339  and  _340
REMARK  137  A    between atoms: _339  and  _342
REMARK  138  A    between atoms: _342  and  _343
REMARK  139  A    between atoms: _346  and  _348
REMARK  140  A    between atoms: _348  and  _349
REMARK  141  A    between atoms: _348  and  _351
REMARK  142  A    between atoms: _351  and  _352
REMARK  143  A    between atoms: _357  and  _359
REMARK  144  A    between atoms: _359  and  _360
REMARK  145  A    between atoms: _359  and  _362
REMARK  146  A    between atoms: _362  and  _363
REMARK  147  A    between atoms: _363  and  _365
REMARK  148  A    between atoms: _365  and  ZN_1038
REMARK  149  A    between atoms: _366  and  _368
REMARK  150  A    between atoms: _368  and  _369
REMARK  151  A    between atoms: _368  and  _371
REMARK  152  A    between atoms: _371  and  _372
REMARK  153  A    between atoms: _374  and  _376
REMARK  154  A    between atoms: _376  and  _377
REMARK  155  A    between atoms: _376  and  _379
REMARK  156  A    between atoms: _379  and  _380
REMARK  157  A    between atoms: _382  and  _384
REMARK  158  A    between atoms: _384  and  _385
REMARK  159  A    between atoms: _384  and  _387
REMARK  160  A    between atoms: _387  and  _388
REMARK  161  A    between atoms: _391  and  _393
REMARK  162  A    between atoms: _393  and  _394
REMARK  163  A    between atoms: _393  and  _396
REMARK  164  A    between atoms: _396  and  _397
REMARK  165  A    between atoms: _397  and  _398
REMARK  166  A    between atoms: _401  and  _403
REMARK  167  A    between atoms: _403  and  _404
REMARK  168  A    between atoms: _403  and  _406
REMARK  169  A    between atoms: _406  and  _407
REMARK  170  A    between atoms: _412  and  _413
REMARK  171  A    between atoms: _415  and  _417
REMARK  172  A    between atoms: _417  and  _418
REMARK  173  A    between atoms: _417  and  _420
REMARK  174  A    between atoms: _420  and  _421
REMARK  175  A    between atoms: _424  and  _426
REMARK  176  A    between atoms: _426  and  _427
REMARK  177  A    between atoms: _426  and  _429
REMARK  178  A    between atoms: _429  and  _430
REMARK  179  A    between atoms: _433  and  _435
REMARK  180  A    between atoms: _435  and  _436
REMARK  181  A    between atoms: _435  and  _438
REMARK  182  A    between atoms: _438  and  _439
REMARK  183  A    between atoms: _439  and  _440
REMARK  184  A    between atoms: _440  and  _441
REMARK  185  A    between atoms: _450  and  _452
REMARK  186  A    between atoms: _452  and  _453
REMARK  187  A    between atoms: _452  and  _455
REMARK  188  A    between atoms: _458  and  _460
REMARK  189  A    between atoms: _460  and  _461
REMARK  190  A    between atoms: _460  and  _463
REMARK  191  A    between atoms: _463  and  _464
REMARK  192  A    between atoms: _467  and  _469
REMARK  193  A    between atoms: _469  and  _470
REMARK  194  A    between atoms: _469  and  _472
REMARK  195  A    between atoms: _474  and  _476
REMARK  196  A    between atoms: _476  and  _477
REMARK  197  A    between atoms: _476  and  _479
REMARK  198  A    between atoms: _479  and  _480
REMARK  199  A    between atoms: _490  and  _492
REMARK  200  A    between atoms: _492  and  _493
REMARK  201  A    between atoms: _492  and  _495
REMARK  202  A    between atoms: _495  and  _496
REMARK  203  A    between atoms: _496  and  _497
REMARK  204  A    between atoms: _497  and  _498
REMARK  205  A    between atoms: _498  and  _499
REMARK  206  A    between atoms: _503  and  _505
REMARK  207  A    between atoms: _505  and  _506
REMARK  208  A    between atoms: _505  and  _508
REMARK  209  A    between atoms: _508  and  _509
REMARK  210  A    between atoms: _512  and  _513
REMARK  211  A    between atoms: _519  and  _520
REMARK  212  A    between atoms: _525  and  _527
REMARK  213  A    between atoms: _527  and  _528
REMARK  214  A    between atoms: _527  and  _530
REMARK  215  A    between atoms: _530  and  _531
REMARK  216  A    between atoms: _531  and  _532
REMARK  217  A    between atoms: _535  and  _537
REMARK  218  A    between atoms: _537  and  _538
REMARK  219  A    between atoms: _537  and  _540
REMARK  220  A    between atoms: _540  and  _541
REMARK  221  A    between atoms: _541  and  _542
REMARK  222  A    between atoms: _542  and  _543
REMARK  223  A    between atoms: _552  and  _554
REMARK  224  A    between atoms: _554  and  _555
REMARK  225  A    between atoms: _554  and  _557
REMARK  226  A    between atoms: _557  and  _558
REMARK  227  A    between atoms: _561  and  _563
REMARK  228  A    between atoms: _563  and  _564
REMARK  229  A    between atoms: _563  and  _566
REMARK  230  A    between atoms: _566  and  _567
REMARK  231  A    between atoms: _569  and  _571
REMARK  232  A    between atoms: _571  and  _572
REMARK  233  A    between atoms: _571  and  _574
REMARK  234  A    between atoms: _574  and  _575
REMARK  235  A    between atoms: _575  and  _576
REMARK  236  A    between atoms: _576  and  _577
REMARK  237  A    between atoms: _577  and  _578
REMARK  238  A    between atoms: _582  and  _584
REMARK  239  A    between atoms: _584  and  _585
REMARK  240  A    between atoms: _584  and  _587
REMARK  241  A    between atoms: _587  and  _588
REMARK  242  A    between atoms: _591  and  _593
REMARK  243  A    between atoms: _593  and  _594
REMARK  244  A    between atoms: _596  and  _598
REMARK  245  A    between atoms: _598  and  _599
REMARK  246  A    between atoms: _598  and  _601
REMARK  247  A    between atoms: _601  and  _602
REMARK  248  A    between atoms: _604  and  _606
REMARK  249  A    between atoms: _606  and  _607
REMARK  250  A    between atoms: _609  and  _611
REMARK  251  A    between atoms: _611  and  _612
REMARK  252  A    between atoms: _611  and  _614
REMARK  253  A    between atoms: _614  and  _615
REMARK  254  A    between atoms: _620  and  _622
REMARK  255  A    between atoms: _622  and  _623
REMARK  256  A    between atoms: _622  and  _625
REMARK  257  A    between atoms: _625  and  _626
REMARK  258  A    between atoms: _629  and  _631
REMARK  259  A    between atoms: _631  and  _632
REMARK  260  A    between atoms: _631  and  _634
REMARK  261  A    between atoms: _634  and  _635
REMARK  262  A    between atoms: _641  and  _643
REMARK  263  A    between atoms: _643  and  _644
REMARK  264  A    between atoms: _643  and  _646
REMARK  265  A    between atoms: _646  and  _647
REMARK  266  A    between atoms: _647  and  _648
REMARK  267  A    between atoms: _651  and  _653
REMARK  268  A    between atoms: _653  and  _654
REMARK  269  A    between atoms: _653  and  _656
REMARK  270  A    between atoms: _656  and  _657
REMARK  271  A    between atoms: _657  and  _658
REMARK  272  A    between atoms: _663  and  _665
REMARK  273  A    between atoms: _665  and  _666
REMARK  274  A    between atoms: _665  and  _668
REMARK  275  A    between atoms: _668  and  _669
REMARK  276  A    between atoms: _669  and  _670
REMARK  277  A    between atoms: _670  and  _671
REMARK  278  A    between atoms: _680  and  _682
REMARK  279  A    between atoms: _682  and  _683
REMARK  280  A    between atoms: _682  and  _685
REMARK  281  A    between atoms: _685  and  _686
REMARK  282  A    between atoms: _686  and  _687
REMARK  283  A    between atoms: _687  and  _688
REMARK  284  A    between atoms: _697  and  _699
REMARK  285  A    between atoms: _699  and  _700
REMARK  286  A    between atoms: _699  and  _702
REMARK  287  A    between atoms: _702  and  _703
REMARK  288  A    between atoms: _708  and  _709
REMARK  289  A    between atoms: _711  and  _713
REMARK  290  A    between atoms: _713  and  _714
REMARK  291  A    between atoms: _713  and  _716
REMARK  292  A    between atoms: _716  and  _717
REMARK  293  A    between atoms: _720  and  _722
REMARK  294  A    between atoms: _722  and  _723
REMARK  295  A    between atoms: _722  and  _725
REMARK  296  A    between atoms: _725  and  _726
REMARK  297  A    between atoms: _726  and  _727
REMARK  298  A    between atoms: _727  and  _728
REMARK  299  A    between atoms: _728  and  _729
REMARK  300  A    between atoms: _733  and  _735
REMARK  301  A    between atoms: _735  and  _736
REMARK  302  A    between atoms: _735  and  _738
REMARK  303  A    between atoms: _738  and  _739
REMARK  304  A    between atoms: _744  and  _746
REMARK  305  A    between atoms: _746  and  _747
REMARK  306  A    between atoms: _746  and  _749
REMARK  307  A    between atoms: _749  and  _750
REMARK  308  A    between atoms: _760  and  _762
REMARK  309  A    between atoms: _762  and  _763
REMARK  310  A    between atoms: _762  and  _765
REMARK  311  A    between atoms: _765  and  _766
REMARK  312  A    between atoms: _766  and  _767
REMARK  313  A    between atoms: _770  and  _772
REMARK  314  A    between atoms: _772  and  _773
REMARK  315  A    between atoms: _772  and  _775
REMARK  316  A    between atoms: _775  and  _776
REMARK  317  A    between atoms: _779  and  _781
REMARK  318  A    between atoms: _781  and  _782
REMARK  319  A    between atoms: _781  and  _784
REMARK  320  A    between atoms: _784  and  _785
REMARK  321  A    between atoms: _790  and  _792
REMARK  322  A    between atoms: _792  and  _793
REMARK  323  A    between atoms: _792  and  _795
REMARK  324  A    between atoms: _795  and  _796
REMARK  325  A    between atoms: _802  and  _804
REMARK  326  A    between atoms: _804  and  _805
REMARK  327  A    between atoms: _804  and  _807
REMARK  328  A    between atoms: _807  and  _808
REMARK  329  A    between atoms: _810  and  _812
REMARK  330  A    between atoms: _812  and  _813
REMARK  331  A    between atoms: _815  and  _817
REMARK  332  A    between atoms: _817  and  _818
REMARK  333  A    between atoms: _817  and  _820
REMARK  334  A    between atoms: _820  and  _821
REMARK  335  A    between atoms: _826  and  _827
REMARK  336  A    between atoms: _829  and  _831
REMARK  337  A    between atoms: _831  and  _832
REMARK  338  A    between atoms: _831  and  _834
REMARK  339  A    between atoms: _834  and  _835
REMARK  340  A    between atoms: _840  and  _841
REMARK  341  A    between atoms: _843  and  _845
REMARK  342  A    between atoms: _845  and  _846
REMARK  343  A    between atoms: _845  and  _848
REMARK  344  A    between atoms: _848  and  _849
REMARK  345  A    between atoms: _853  and  ZN_1037
REMARK  346  A    between atoms: _854  and  _856
REMARK  347  A    between atoms: _856  and  _857
REMARK  348  A    between atoms: _856  and  _859
REMARK  349  A    between atoms: _859  and  _860
REMARK  350  A    between atoms: _860  and  _861
REMARK  351  A    between atoms: _864  and  _866
REMARK  352  A    between atoms: _866  and  _867
REMARK  353  A    between atoms: _866  and  _869
REMARK  354  A    between atoms: _869  and  _870
REMARK  355  A    between atoms: _870  and  _871
REMARK  356  A    between atoms: _871  and  _872
REMARK  357  A    between atoms: _881  and  _883
REMARK  358  A    between atoms: _883  and  _884
REMARK  359  A    between atoms: _883  and  _886
REMARK  360  A    between atoms: _886  and  _887
REMARK  361  A    between atoms: _887  and  _888
REMARK  362  A    between atoms: _888  and  _889
REMARK  363  A    between atoms: _889  and  _890
REMARK  364  A    between atoms: _894  and  _896
REMARK  365  A    between atoms: _896  and  _897
REMARK  366  A    between atoms: _896  and  _899
REMARK  367  A    between atoms: _899  and  _900
REMARK  368  A    between atoms: _905  and  _906
REMARK  369  A    between atoms: _908  and  _910
REMARK  370  A    between atoms: _910  and  _911
REMARK  371  A    between atoms: _910  and  _913
REMARK  372  A    between atoms: _913  and  _914
REMARK  373  A    between atoms: _914  and  _915
REMARK  374  A    between atoms: _915  and  _916
REMARK  375  A    between atoms: _916  and  _917
REMARK  376  A    between atoms: _921  and  _923
REMARK  377  A    between atoms: _923  and  _924
REMARK  378  A    between atoms: _923  and  _926
REMARK  379  A    between atoms: _926  and  _927
REMARK  380  A    between atoms: _932  and  _933
REMARK  381  A    between atoms: _935  and  _937
REMARK  382  A    between atoms: _937  and  _938
REMARK  383  A    between atoms: _937  and  _940
REMARK  384  A    between atoms: _940  and  _941
REMARK  385  A    between atoms: _946  and  _947
REMARK  386  A    between atoms: _949  and  _951
REMARK  387  A    between atoms: _951  and  _952
REMARK  388  A    between atoms: _956  and  _957
REMARK  389  A    between atoms: _962  and  _964
REMARK  390  A    between atoms: _964  and  _965
REMARK  391  A    between atoms: _964  and  _967
REMARK  392  A    between atoms: _967  and  _968
REMARK  393  A    between atoms: _970  and  _972
REMARK  394  A    between atoms: _972  and  _973
REMARK  395  A    between atoms: _972  and  _975
REMARK  396  A    between atoms: _975  and  _976
REMARK  397  A    between atoms: _981  and  _983
REMARK  398  A    between atoms: _983  and  _984
REMARK  399  A    between atoms: _983  and  _986
REMARK  400  A    between atoms: _986  and  _987
REMARK  401  A    between atoms: _987  and  _988
REMARK  402  A    between atoms: _988  and  _989
REMARK  403  A    between atoms: _989  and  _990
REMARK  404  A    between atoms: _994  and  _996
REMARK  405  A    between atoms: _996  and  _997
REMARK  406  A    between atoms: _996  and  _999
REMARK  407  A    between atoms: _999  and  _1000
REMARK  408  A    between atoms: _1005  and  _1006
REMARK  409  A    between atoms: _1008  and  _1010
REMARK  410  A    between atoms: _1010  and  _1011
REMARK  411  A    between atoms: _1014  and  _1016
REMARK  412  A    between atoms: _1016  and  _1017
REMARK  413  A    between atoms: _1019  and  _1021
REMARK  414  A    between atoms: _1021  and  _1022
REMARK  415  A    between atoms: _1021  and  _1024
REMARK  416  A    between atoms: _1024  and  _1025
REMARK  417  A    between atoms: _1025  and  _1026
REMARK  418  A    between atoms: _1029  and  _1031
REMARK  419  A    between atoms: _1031  and  _1032
REMARK  420  A    between atoms: _1031  and  _1034
REMARK  421  A    between atoms: _1034  and  _1035
REMARK                            x       y       z     vdW  Elec       q    Type
REMARK                         _______ _______ _______ _____ _____    ______ ____
ROOT
ATOM      1  NE  ARG A   1      19.864  45.529  56.570  0.00  0.00    -0.265 N 
ATOM      2  HE  ARG A   1      20.414  46.387  56.364  0.00  0.00    +0.259 HD
ATOM      3  CZ  ARG A   1      19.855  44.559  55.652  0.00  0.00    +0.342 C 
ATOM      4  NH2 ARG A   1      19.181  43.421  55.860  0.00  0.00    -0.292 N 
ATOM      5 HH21 ARG A   1      18.655  43.283  56.746  0.00  0.00    +0.255 HD
ATOM      6 HH22 ARG A   1      19.184  42.675  55.135  0.00  0.00    +0.255 HD
ATOM      7  NH1 ARG A   1      20.518  44.726  54.522  0.00  0.00    -0.292 N 
ATOM      8 HH11 ARG A   1      21.042  45.608  54.352  0.00  0.00    +0.255 HD
ATOM      9 HH12 ARG A   1      20.516  43.975  53.802  0.00  0.00    +0.255 HD
ENDROOT
BRANCH   1  10
ATOM     10  CD  ARG A   1      19.154  45.464  57.840  0.00  0.00    +0.174 C 
BRANCH  10  11
ATOM     11  CG  ARG A   1      19.480  46.667  58.711  0.00  0.00    +0.045 C 
BRANCH  11  12
ATOM     12  CB  ARG A   1      18.764  46.596  60.040  0.00  0.00    +0.029 C 
BRANCH  12  13
ATOM     13  CA  ARG A   1      19.201  47.695  61.017  0.00  0.00    +0.133 C 
BRANCH  13  14
ATOM     14  N   ARG A   1      20.609  47.496  61.442  0.00  0.00    -0.239 NA
ATOM     15  H   ARG A   1      21.149  46.662  61.134  0.00  0.00    +0.142 HD
ENDBRANCH  13  14
BRANCH  13  16
ATOM     16  C   ARG A   1      18.234  47.714  62.200  0.00  0.00    +0.224 C 
ATOM     17  O   ARG A   1      17.318  48.560  62.284  0.00  0.00    -0.287 OA
ENDBRANCH  13  16
ENDBRANCH  12  13
ENDBRANCH  11  12
ENDBRANCH  10  11
ENDBRANCH   1  10
TORSDOF 6
REMARK  Name = ../refined-set-2016/2xef/2xef_pocket.pdb
REMARK  421 active torsions:
REMARK  status: ('A' for Active; 'I' for Inactive)
REMARK    1  A    between atoms: _1  and  _3
REMARK    2  A    between atoms: _3  and  _4
REMARK    3  A    between atoms: _7  and  _9
REMARK    4  A    between atoms: _9  and  _10
REMARK    5  A    between atoms: _9  and  _12
REMARK    6  A    between atoms: _12  and  _13
REMARK    7  A    between atoms: _19  and  _21
REMARK    8  A    between atoms: _21  and  _22
REMARK    9  A    between atoms: _21  and  _24
REMARK   10  A    between atoms: _24  and  _25
REMARK   11  A    between atoms: _30  and  _31
REMARK   12  A    between atoms: _33  and  _35
REMARK   13  A    between atoms: _35  and  _36
REMARK   14  A    between atoms: _38  and  _40
REMARK   15  A    between atoms: _40  and  _41
REMARK   16  A    between atoms: _40  and  _43
REMARK   17  A    between atoms: _43  and  _44
REMARK   18  A    between atoms: _44  and  _45
REMARK   19  A    between atoms: _45  and  _46
REMARK   20  A    between atoms: _46  and  _47
REMARK   21  A    between atoms: _51  and  _53
REMARK   22  A    between atoms: _53  and  _54
REMARK   23  A    between atoms: _53  and  _56
REMARK   24  A    between atoms: _59  and  _61
REMARK   25  A    between atoms: _61  and  _62
REMARK   26  A    between atoms: _61  and  _64
REMARK   27  A    between atoms: _64  and  _65
REMARK   28  A    between atoms: _71  and  _73
REMARK   29  A    between atoms: _73  and  _74
REMARK   30  A    between atoms: _73  and  _76
REMARK   31  A    between atoms: _76  and  _77
REMARK   32  A    between atoms: _77  and  _78
REMARK   33  A    between atoms: _78  and  _79
REMARK   34  A    between atoms: _88  and  _90
REMARK   35  A    between atoms: _90  and  _91
REMARK   36  A    between atoms: _93  and  _95
REMARK   37  A    between atoms: _95  and  _96
REMARK   38  A    between atoms: _95  and  _98
REMARK   39  A    between atoms: _98  and  _99
REMARK   40  A    between atoms: _99  and  _100
REMARK   41  A    between atoms: _100  and  _101
REMARK   42  A    between atoms: _101  and  _102
REMARK   43  A    between atoms: _106  and  _108
REMARK   44  A    between atoms: _108  and  _109
REMARK   45  A    between atoms: _108  and  _111
REMARK   46  A    between atoms: _111  and  _112
REMARK   47  A    between atoms: _117  and  _118
REMARK   48  A    between atoms: _120  and  _122
REMARK   49  A    between atoms: _122  and  _123
REMARK   50  A    between atoms: _122  and  _125
REMARK   51  A    between atoms: _125  and  _126
REMARK   52  A    between atoms: _126  and  _127
REMARK   53  A    between atoms: _132  and  _134
REMARK   54  A    between atoms: _134  and  _135
REMARK   55  A    between atoms: _134  and  _137
REMARK   56  A    between atoms: _137  and  _138
REMARK   57  A    between atoms: _138  and  _139
REMARK   58  A    between atoms: _139  and  _140
REMARK   59  A    between atoms: _149  and  _151
REMARK   60  A    between atoms: _151  and  _152
REMARK   61  A    between atoms: _154  and  _156
REMARK   62  A    between atoms: _156  and  _157
REMARK   63  A    between atoms: _156  and  _159
REMARK   64  A    between atoms: _159  and  _160
REMARK   65  A    between atoms: _165  and  _167
REMARK   66  A    between atoms: _167  and  _168
REMARK   67  A    between atoms: _167  and  _170
REMARK   68  A    between atoms: _170  and  _171
REMARK   69  A    between atoms: _174  and  _176
REMARK   70  A    between atoms: _176  and  _177
REMARK   71  A    between atoms: _176  and  _179
REMARK   72  A    between atoms: _179  and  _180
REMARK   73  A    between atoms: _183  and  _185
REMARK   74  A    between atoms: _185  and  _186
REMARK   75  A    between atoms: _185  and  _188
REMARK   76  A    between atoms: _188  and  _189
REMARK   77  A    between atoms: _194  and  _196
REMARK   78  A    between atoms: _196  and  _197
REMARK   79  A    between atoms: _196  and  _199
REMARK   80  A    between atoms: _199  and  _200
REMARK   81  A    between atoms: _203  and  _205
REMARK   82  A    between atoms: _205  and  _206
REMARK   83  A    between atoms: _205  and  _208
REMARK   84  A    between atoms: _208  and  _209
REMARK   85  A    between atoms: _214  and  _216
REMARK   86  A    between atoms: _216  and  _217
REMARK   87  A    between atoms: _219  and  _221
REMARK   88  A    between atoms: _221  and  _222
REMARK   89  A    between atoms: _224  and  _226
REMARK   90  A    between atoms: _226  and  _227
REMARK   91  A    between atoms: _226  and  _229
REMARK   92  A    between atoms: _229  and  _230
REMARK   93  A    between atoms: _234  and  ZN_1038
REMARK   94  A    between atoms: _235  and  _237
REMARK   95  A    between atoms: _237  and  _238
REMARK   96  A    between atoms: _237  and  _240
REMARK   97  A    between atoms: _240  and  _241
REMARK   98  A    between atoms: _244  and  _246
REMARK   99  A    between atoms: _246  and  _247
REMARK  100  A    between atoms: _246  and  _249
REMARK  101  A    between atoms: _249  and  _250
REMARK  102  A    between atoms: _260  and  _262
REMARK  103  A    between atoms: _262  and  _263
REMARK  104  A    between atoms: _262  and  _265
REMARK  105  A    between atoms: _265  and  _266
REMARK  106  A    between atoms: _269  and  _271
REMARK  107  A    between atoms: _271  and  _272
REMARK  108  A    between atoms: _271  and  _274
REMARK  109  A    between atoms: _274  and  _275
REMARK  110  A    between atoms: _279  and  _280
REMARK  111  A    between atoms: _285  and  _287
REMARK  112  A    between atoms: _287  and  _288
REMARK  113  A    between atoms: _291  and  _293
REMARK  114  A    between atoms: _293  and  _294
REMARK  115  A    between atoms: _293  and  _296
REMARK  116  A    between atoms: _296  and  _297
REMARK  117  A    between atoms: _297  and  _298
REMARK  118  A    between atoms: _301  and  _303
REMARK  119  A    between atoms: _303  and  _304
REMARK  120  A    between atoms: _303  and  _306
REMARK  121  A    between atoms: _306  and  _307
REMARK  122  A    between atoms: _307  and  _308
REMARK  123  A    between atoms: _308  and  _310
REMARK  124  A    between atoms: _310  and  ZN_1037
REMARK  125  A    between atoms: _311  and  _313
REMARK  126  A    between atoms: _313  and  _314
REMARK  127  A    between atoms: _313  and  _316
REMARK  128  A    between atoms: _316  and  _317
REMARK  129  A    between atoms: _323  and  _325
REMARK  130  A    between atoms: _325  and  _326
REMARK  131  A    between atoms: _328  and  _330
REMARK  132  A    between atoms: _330  and  _331
REMARK  133  A    between atoms: _330  and  _333
REMARK  134  A    between atoms: _333  and  _334
REMARK  135  A    between atoms: _337  and  _339
REMARK  136  A    between atoms: _339  and  _340
REMARK  137  A    between atoms: _339  and  _342
REMARK  138  A    between atoms: _342  and  _343
REMARK  139  A    between atoms: _346  and  _348
REMARK  140  A    between atoms: _348  and  _349
REMARK  141  A    between atoms: _348  and  _351
REMARK  142  A    between atoms: _351  and  _352
REMARK  143  A    between atoms: _357  and  _359
REMARK  144  A    between atoms: _359  and  _360
REMARK  145  A    between atoms: _359  and  _362
REMARK  146  A    between atoms: _362  and  _363
REMARK  147  A    between atoms: _363  and  _365
REMARK  148  A    between atoms: _365  and  ZN_1038
REMARK  149  A    between atoms: _366  and  _368
REMARK  150  A    between atoms: _368  and  _369
REMARK  151  A    between atoms: _368  and  _371
REMARK  152  A    between atoms: _371  and  _372
REMARK  153  A    between atoms: _374  and  _376
REMARK  154  A    between atoms: _376  and  _377
REMARK  155  A    between atoms: _376  and  _379
REMARK  156  A    between atoms: _379  and  _380
REMARK  157  A    between atoms: _382  and  _384
REMARK  158  A    between atoms: _384  and  _385
REMARK  159  A    between atoms: _384  and  _387
REMARK  160  A    between atoms: _387  and  _388
REMARK  161  A    between atoms: _391  and  _393
REMARK  162  A    between atoms: _393  and  _394
REMARK  163  A    between atoms: _393  and  _396
REMARK  164  A    between atoms: _396  and  _397
REMARK  165  A    between atoms: _397  and  _398
REMARK  166  A    between atoms: _401  and  _403
REMARK  167  A    between atoms: _403  and  _404
REMARK  168  A    between atoms: _403  and  _406
REMARK  169  A    between atoms: _406  and  _407
REMARK  170  A    between atoms: _412  and  _413
REMARK  171  A    between atoms: _415  and  _417
REMARK  172  A    between atoms: _417  and  _418
REMARK  173  A    between atoms: _417  and  _420
REMARK  174  A    between atoms: _420  and  _421
REMARK  175  A    between atoms: _424  and  _426
REMARK  176  A    between atoms: _426  and  _427
REMARK  177  A    between atoms: _426  and  _429
REMARK  178  A    between atoms: _429  and  _430
REMARK  179  A    between atoms: _433  and  _435
REMARK  180  A    between atoms: _435  and  _436
REMARK  181  A    between atoms: _435  and  _438
REMARK  182  A    between atoms: _438  and  _439
REMARK  183  A    between atoms: _439  and  _440
REMARK  184  A    between atoms: _440  and  _441
REMARK  185  A    between atoms: _450  and  _452
REMARK  186  A    between atoms: _452  and  _453
REMARK  187  A    between atoms: _452  and  _455
REMARK  188  A    between atoms: _458  and  _460
REMARK  189  A    between atoms: _460  and  _461
REMARK  190  A    between atoms: _460  and  _463
REMARK  191  A    between atoms: _463  and  _464
REMARK  192  A    between atoms: _467  and  _469
REMARK  193  A    between atoms: _469  and  _470
REMARK  194  A    between atoms: _469  and  _472
REMARK  195  A    between atoms: _474  and  _476
REMARK  196  A    between atoms: _476  and  _477
REMARK  197  A    between atoms: _476  and  _479
REMARK  198  A    between atoms: _479  and  _480
REMARK  199  A    between atoms: _490  and  _492
REMARK  200  A    between atoms: _492  and  _493
REMARK  201  A    between atoms: _492  and  _495
REMARK  202  A    between atoms: _495  and  _496
REMARK  203  A    between atoms: _496  and  _497
REMARK  204  A    between atoms: _497  and  _498
REMARK  205  A    between atoms: _498  and  _499
REMARK  206  A    between atoms: _503  and  _505
REMARK  207  A    between atoms: _505  and  _506
REMARK  208  A    between atoms: _505  and  _508
REMARK  209  A    between atoms: _508  and  _509
REMARK  210  A    between atoms: _512  and  _513
REMARK  211  A    between atoms: _519  and  _520
REMARK  212  A    between atoms: _525  and  _527
REMARK  213  A    between atoms: _527  and  _528
REMARK  214  A    between atoms: _527  and  _530
REMARK  215  A    between atoms: _530  and  _531
REMARK  216  A    between atoms: _531  and  _532
REMARK  217  A    between atoms: _535  and  _537
REMARK  218  A    between atoms: _537  and  _538
REMARK  219  A    between atoms: _537  and  _540
REMARK  220  A    between atoms: _540  and  _541
REMARK  221  A    between atoms: _541  and  _542
REMARK  222  A    between atoms: _542  and  _543
REMARK  223  A    between atoms: _552  and  _554
REMARK  224  A    between atoms: _554  and  _555
REMARK  225  A    between atoms: _554  and  _557
REMARK  226  A    between atoms: _557  and  _558
REMARK  227  A    between atoms: _561  and  _563
REMARK  228  A    between atoms: _563  and  _564
REMARK  229  A    between atoms: _563  and  _566
REMARK  230  A    between atoms: _566  and  _567
REMARK  231  A    between atoms: _569  and  _571
REMARK  232  A    between atoms: _571  and  _572
REMARK  233  A    between atoms: _571  and  _574
REMARK  234  A    between atoms: _574  and  _575
REMARK  235  A    between atoms: _575  and  _576
REMARK  236  A    between atoms: _576  and  _577
REMARK  237  A    between atoms: _577  and  _578
REMARK  238  A    between atoms: _582  and  _584
REMARK  239  A    between atoms: _584  and  _585
REMARK  240  A    between atoms: _584  and  _587
REMARK  241  A    between atoms: _587  and  _588
REMARK  242  A    between atoms: _591  and  _593
REMARK  243  A    between atoms: _593  and  _594
REMARK  244  A    between atoms: _596  and  _598
REMARK  245  A    between atoms: _598  and  _599
REMARK  246  A    between atoms: _598  and  _601
REMARK  247  A    between atoms: _601  and  _602
REMARK  248  A    between atoms: _604  and  _606
REMARK  249  A    between atoms: _606  and  _607
REMARK  250  A    between atoms: _609  and  _611
REMARK  251  A    between atoms: _611  and  _612
REMARK  252  A    between atoms: _611  and  _614
REMARK  253  A    between atoms: _614  and  _615
REMARK  254  A    between atoms: _620  and  _622
REMARK  255  A    between atoms: _622  and  _623
REMARK  256  A    between atoms: _622  and  _625
REMARK  257  A    between atoms: _625  and  _626
REMARK  258  A    between atoms: _629  and  _631
REMARK  259  A    between atoms: _631  and  _632
REMARK  260  A    between atoms: _631  and  _634
REMARK  261  A    between atoms: _634  and  _635
REMARK  262  A    between atoms: _641  and  _643
REMARK  263  A    between atoms: _643  and  _644
REMARK  264  A    between atoms: _643  and  _646
REMARK  265  A    between atoms: _646  and  _647
REMARK  266  A    between atoms: _647  and  _648
REMARK  267  A    between atoms: _651  and  _653
REMARK  268  A    between atoms: _653  and  _654
REMARK  269  A    between atoms: _653  and  _656
REMARK  270  A    between atoms: _656  and  _657
REMARK  271  A    between atoms: _657  and  _658
REMARK  272  A    between atoms: _663  and  _665
REMARK  273  A    between atoms: _665  and  _666
REMARK  274  A    between atoms: _665  and  _668
REMARK  275  A    between atoms: _668  and  _669
REMARK  276  A    between atoms: _669  and  _670
REMARK  277  A    between atoms: _670  and  _671
REMARK  278  A    between atoms: _680  and  _682
REMARK  279  A    between atoms: _682  and  _683
REMARK  280  A    between atoms: _682  and  _685
REMARK  281  A    between atoms: _685  and  _686
REMARK  282  A    between atoms: _686  and  _687
REMARK  283  A    between atoms: _687  and  _688
REMARK  284  A    between atoms: _697  and  _699
REMARK  285  A    between atoms: _699  and  _700
REMARK  286  A    between atoms: _699  and  _702
REMARK  287  A    between atoms: _702  and  _703
REMARK  288  A    between atoms: _708  and  _709
REMARK  289  A    between atoms: _711  and  _713
REMARK  290  A    between atoms: _713  and  _714
REMARK  291  A    between atoms: _713  and  _716
REMARK  292  A    between atoms: _716  and  _717
REMARK  293  A    between atoms: _720  and  _722
REMARK  294  A    between atoms: _722  and  _723
REMARK  295  A    between atoms: _722  and  _725
REMARK  296  A    between atoms: _725  and  _726
REMARK  297  A    between atoms: _726  and  _727
REMARK  298  A    between atoms: _727  and  _728
REMARK  299  A    between atoms: _728  and  _729
REMARK  300  A    between atoms: _733  and  _735
REMARK  301  A    between atoms: _735  and  _736
REMARK  302  A    between atoms: _735  and  _738
REMARK  303  A    between atoms: _738  and  _739
REMARK  304  A    between atoms: _744  and  _746
REMARK  305  A    between atoms: _746  and  _747
REMARK  306  A    between atoms: _746  and  _749
REMARK  307  A    between atoms: _749  and  _750
REMARK  308  A    between atoms: _760  and  _762
REMARK  309  A    between atoms: _762  and  _763
REMARK  310  A    between atoms: _762  and  _765
REMARK  311  A    between atoms: _765  and  _766
REMARK  312  A    between atoms: _766  and  _767
REMARK  313  A    between atoms: _770  and  _772
REMARK  314  A    between atoms: _772  and  _773
REMARK  315  A    between atoms: _772  and  _775
REMARK  316  A    between atoms: _775  and  _776
REMARK  317  A    between atoms: _779  and  _781
REMARK  318  A    between atoms: _781  and  _782
REMARK  319  A    between atoms: _781  and  _784
REMARK  320  A    between atoms: _784  and  _785
REMARK  321  A    between atoms: _790  and  _792
REMARK  322  A    between atoms: _792  and  _793
REMARK  323  A    between atoms: _792  and  _795
REMARK  324  A    between atoms: _795  and  _796
REMARK  325  A    between atoms: _802  and  _804
REMARK  326  A    between atoms: _804  and  _805
REMARK  327  A    between atoms: _804  and  _807
REMARK  328  A    between atoms: _807  and  _808
REMARK  329  A    between atoms: _810  and  _812
REMARK  330  A    between atoms: _812  and  _813
REMARK  331  A    between atoms: _815  and  _817
REMARK  332  A    between atoms: _817  and  _818
REMARK  333  A    between atoms: _817  and  _820
REMARK  334  A    between atoms: _820  and  _821
REMARK  335  A    between atoms: _826  and  _827
REMARK  336  A    between atoms: _829  and  _831
REMARK  337  A    between atoms: _831  and  _832
REMARK  338  A    between atoms: _831  and  _834
REMARK  339  A    between atoms: _834  and  _835
REMARK  340  A    between atoms: _840  and  _841
REMARK  341  A    between atoms: _843  and  _845
REMARK  342  A    between atoms: _845  and  _846
REMARK  343  A    between atoms: _845  and  _848
REMARK  344  A    between atoms: _848  and  _849
REMARK  345  A    between atoms: _853  and  ZN_1037
REMARK  346  A    between atoms: _854  and  _856
REMARK  347  A    between atoms: _856  and  _857
REMARK  348  A    between atoms: _856  and  _859
REMARK  349  A    between atoms: _859  and  _860
REMARK  350  A    between atoms: _860  and  _861
REMARK  351  A    between atoms: _864  and  _866
REMARK  352  A    between atoms: _866  and  _867
REMARK  353  A    between atoms: _866  and  _869
REMARK  354  A    between atoms: _869  and  _870
REMARK  355  A    between atoms: _870  and  _871
REMARK  356  A    between atoms: _871  and  _872
REMARK  357  A    between atoms: _881  and  _883
REMARK  358  A    between atoms: _883  and  _884
REMARK  359  A    between atoms: _883  and  _886
REMARK  360  A    between atoms: _886  and  _887
REMARK  361  A    between atoms: _887  and  _888
REMARK  362  A    between atoms: _888  and  _889
REMARK  363  A    between atoms: _889  and  _890
REMARK  364  A    between atoms: _894  and  _896
REMARK  365  A    between atoms: _896  and  _897
REMARK  366  A    between atoms: _896  and  _899
REMARK  367  A    between atoms: _899  and  _900
REMARK  368  A    between atoms: _905  and  _906
REMARK  369  A    between atoms: _908  and  _910
REMARK  370  A    between atoms: _910  and  _911
REMARK  371  A    between atoms: _910  and  _913
REMARK  372  A    between atoms: _913  and  _914
REMARK  373  A    between atoms: _914  and  _915
REMARK  374  A    between atoms: _915  and  _916
REMARK  375  A    between atoms: _916  and  _917
REMARK  376  A    between atoms: _921  and  _923
REMARK  377  A    between atoms: _923  and  _924
REMARK  378  A    between atoms: _923  and  _926
REMARK  379  A    between atoms: _926  and  _927
REMARK  380  A    between atoms: _932  and  _933
REMARK  381  A    between atoms: _935  and  _937
REMARK  382  A    between atoms: _937  and  _938
REMARK  383  A    between atoms: _937  and  _940
REMARK  384  A    between atoms: _940  and  _941
REMARK  385  A    between atoms: _946  and  _947
REMARK  386  A    between atoms: _949  and  _951
REMARK  387  A    between atoms: _951  and  _952
REMARK  388  A    between atoms: _956  and  _957
REMARK  389  A    between atoms: _962  and  _964
REMARK  390  A    between atoms: _964  and  _965
REMARK  391  A    between atoms: _964  and  _967
REMARK  392  A    between atoms: _967  and  _968
REMARK  393  A    between atoms: _970  and  _972
REMARK  394  A    between atoms: _972  and  _973
REMARK  395  A    between atoms: _972  and  _975
REMARK  396  A    between atoms: _975  and  _976
REMARK  397  A    between atoms: _981  and  _983
REMARK  398  A    between atoms: _983  and  _984
REMARK  399  A    between atoms: _983  and  _986
REMARK  400  A    between atoms: _986  and  _987
REMARK  401  A    between atoms: _987  and  _988
REMARK  402  A    between atoms: _988  and  _989
REMARK  403  A    between atoms: _989  and  _990
REMARK  404  A    between atoms: _994  and  _996
REMARK  405  A    between atoms: _996  and  _997
REMARK  406  A    between atoms: _996  and  _999
REMARK  407  A    between atoms: _999  and  _1000
REMARK  408  A    between atoms: _1005  and  _1006
REMARK  409  A    between atoms: _1008  and  _1010
REMARK  410  A    between atoms: _1010  and  _1011
REMARK  411  A    between atoms: _1014  and  _1016
REMARK  412  A    between atoms: _1016  and  _1017
REMARK  413  A    between atoms: _1019  and  _1021
REMARK  414  A    between atoms: _1021  and  _1022
REMARK  415  A    between atoms: _1021  and  _1024
REMARK  416  A    between atoms: _1024  and  _1025
REMARK  417  A    between atoms: _1025  and  _1026
REMARK  418  A    between atoms: _1029  and  _1031
REMARK  419  A    between atoms: _1031  and  _1032
REMARK  420  A    between atoms: _1031  and  _1034
REMARK  421  A    between atoms: _1034  and  _1035
REMARK                            x       y       z     vdW  Elec       q    Type
REMARK                         _______ _______ _______ _____ _____    ______ ____
ROOT
ATOM      1  C   LYS A   1      26.177  70.391  47.388  0.00  0.00    +0.238 C 
ATOM      2  N   TYR A   2      24.884  70.021  47.416  0.00  0.00    -0.298 N 
ATOM      3  H   TYR A   2      24.376  69.962  48.322  0.00  0.00    +0.150 HD
ATOM      4  O   LYS A   1      26.818  70.549  46.328  0.00  0.00    -0.274 OA
ENDROOT
BRANCH   1   5
ATOM      5  CA  LYS A   1      26.864  70.609  48.739  0.00  0.00    +0.145 C 
BRANCH   5   6
ATOM      6  N   LYS A   1      26.055  71.428  49.639  0.00  0.00    -0.238 NA
ATOM      7  H   LYS A   1      25.825  71.075  50.590  0.00  0.00    +0.142 HD
ENDBRANCH   5   6
BRANCH   5   8
ATOM      8  CB  LYS A   1      27.194  69.243  49.403  0.00  0.00    +0.026 C 
BRANCH   8   9
ATOM      9  CG  LYS A   1      27.967  68.269  48.540  0.00  0.00    -0.000 C 
BRANCH   9  10
ATOM     10  CD  LYS A   1      28.273  66.959  49.321  0.00  0.00    -0.024 C 
BRANCH  10  11
ATOM     11  CE  LYS A   1      27.010  66.164  49.623  0.00  0.00    -0.086 C 
BRANCH  11  12
ATOM     12  NZ  LYS A   1      27.314  64.979  50.462  0.00  0.00    +0.380 N 
ATOM     13  HZ1 LYS A   1      27.735  65.291  51.361  0.00  0.00    -0.089 HD
ATOM     14  HZ2 LYS A   1      26.435  64.456  50.652  0.00  0.00    -0.089 HD
ATOM     15  HZ3 LYS A   1      27.984  64.363  49.959  0.00  0.00    -0.089 HD
ENDBRANCH  11  12
ENDBRANCH  10  11
ENDBRANCH   9  10
ENDBRANCH   8   9
ENDBRANCH   5   8
ENDBRANCH   1   5
BRANCH   2  16
ATOM     16  CA  TYR A   2      24.188  69.698  46.148  0.00  0.00    +0.141 C 
BRANCH  16  17
ATOM     17  C   TYR A   2      23.974  70.992  45.356  0.00  0.00    +0.227 C 
ATOM     18  O   TYR A   2      23.997  70.946  44.118  0.00  0.00    -0.286 OA
ENDBRANCH  16  17
BRANCH  16  19
ATOM     19  CB  TYR A   2      22.818  69.102  46.465  0.00  0.00    +0.054 C 
BRANCH  19  20
ATOM     20  CG  TYR A   2      22.884  67.773  47.177  0.00  0.00    -0.020 A 
ATOM     21  CD2 TYR A   2      21.767  67.323  47.909  0.00  0.00    -0.001 A 
ATOM     22  CE2 TYR A   2      21.767  66.090  48.555  0.00  0.00    +0.036 A 
ATOM     23  CZ  TYR A   2      22.944  65.290  48.511  0.00  0.00    +0.134 A 
ATOM     24  CE1 TYR A   2      24.072  65.704  47.802  0.00  0.00    +0.036 A 
ATOM     25  CD1 TYR A   2      24.040  66.979  47.141  0.00  0.00    -0.001 A 
BRANCH  23  26
ATOM     26  OH  TYR A   2      22.967  64.082  49.193  0.00  0.00    -0.506 OA
ATOM     27  HH  TYR A   2      23.848  63.649  49.065  0.00  0.00    +0.292 HD
ENDBRANCH  23  26
ENDBRANCH  19  20
ENDBRANCH  16  19
ENDBRANCH   2  16
TORSDOF 12
REMARK  Name = ../refined-set-2016/2xef/2xef_pocket.pdb
REMARK  421 active torsions:
REMARK  status: ('A' for Active; 'I' for Inactive)
REMARK    1  A    between atoms: _1  and  _3
REMARK    2  A    between atoms: _3  and  _4
REMARK    3  A    between atoms: _7  and  _9
REMARK    4  A    between atoms: _9  and  _10
REMARK    5  A    between atoms: _9  and  _12
REMARK    6  A    between atoms: _12  and  _13
REMARK    7  A    between atoms: _19  and  _21
REMARK    8  A    between atoms: _21  and  _22
REMARK    9  A    between atoms: _21  and  _24
REMARK   10  A    between atoms: _24  and  _25
REMARK   11  A    between atoms: _30  and  _31
REMARK   12  A    between atoms: _33  and  _35
REMARK   13  A    between atoms: _35  and  _36
REMARK   14  A    between atoms: _38  and  _40
REMARK   15  A    between atoms: _40  and  _41
REMARK   16  A    between atoms: _40  and  _43
REMARK   17  A    between atoms: _43  and  _44
REMARK   18  A    between atoms: _44  and  _45
REMARK   19  A    between atoms: _45  and  _46
REMARK   20  A    between atoms: _46  and  _47
REMARK   21  A    between atoms: _51  and  _53
REMARK   22  A    between atoms: _53  and  _54
REMARK   23  A    between atoms: _53  and  _56
REMARK   24  A    between atoms: _59  and  _61
REMARK   25  A    between atoms: _61  and  _62
REMARK   26  A    between atoms: _61  and  _64
REMARK   27  A    between atoms: _64  and  _65
REMARK   28  A    between atoms: _71  and  _73
REMARK   29  A    between atoms: _73  and  _74
REMARK   30  A    between atoms: _73  and  _76
REMARK   31  A    between atoms: _76  and  _77
REMARK   32  A    between atoms: _77  and  _78
REMARK   33  A    between atoms: _78  and  _79
REMARK   34  A    between atoms: _88  and  _90
REMARK   35  A    between atoms: _90  and  _91
REMARK   36  A    between atoms: _93  and  _95
REMARK   37  A    between atoms: _95  and  _96
REMARK   38  A    between atoms: _95  and  _98
REMARK   39  A    between atoms: _98  and  _99
REMARK   40  A    between atoms: _99  and  _100
REMARK   41  A    between atoms: _100  and  _101
REMARK   42  A    between atoms: _101  and  _102
REMARK   43  A    between atoms: _106  and  _108
REMARK   44  A    between atoms: _108  and  _109
REMARK   45  A    between atoms: _108  and  _111
REMARK   46  A    between atoms: _111  and  _112
REMARK   47  A    between atoms: _117  and  _118
REMARK   48  A    between atoms: _120  and  _122
REMARK   49  A    between atoms: _122  and  _123
REMARK   50  A    between atoms: _122  and  _125
REMARK   51  A    between atoms: _125  and  _126
REMARK   52  A    between atoms: _126  and  _127
REMARK   53  A    between atoms: _132  and  _134
REMARK   54  A    between atoms: _134  and  _135
REMARK   55  A    between atoms: _134  and  _137
REMARK   56  A    between atoms: _137  and  _138
REMARK   57  A    between atoms: _138  and  _139
REMARK   58  A    between atoms: _139  and  _140
REMARK   59  A    between atoms: _149  and  _151
REMARK   60  A    between atoms: _151  and  _152
REMARK   61  A    between atoms: _154  and  _156
REMARK   62  A    between atoms: _156  and  _157
REMARK   63  A    between atoms: _156  and  _159
REMARK   64  A    between atoms: _159  and  _160
REMARK   65  A    between atoms: _165  and  _167
REMARK   66  A    between atoms: _167  and  _168
REMARK   67  A    between atoms: _167  and  _170
REMARK   68  A    between atoms: _170  and  _171
REMARK   69  A    between atoms: _174  and  _176
REMARK   70  A    between atoms: _176  and  _177
REMARK   71  A    between atoms: _176  and  _179
REMARK   72  A    between atoms: _179  and  _180
REMARK   73  A    between atoms: _183  and  _185
REMARK   74  A    between atoms: _185  and  _186
REMARK   75  A    between atoms: _185  and  _188
REMARK   76  A    between atoms: _188  and  _189
REMARK   77  A    between atoms: _194  and  _196
REMARK   78  A    between atoms: _196  and  _197
REMARK   79  A    between atoms: _196  and  _199
REMARK   80  A    between atoms: _199  and  _200
REMARK   81  A    between atoms: _203  and  _205
REMARK   82  A    between atoms: _205  and  _206
REMARK   83  A    between atoms: _205  and  _208
REMARK   84  A    between atoms: _208  and  _209
REMARK   85  A    between atoms: _214  and  _216
REMARK   86  A    between atoms: _216  and  _217
REMARK   87  A    between atoms: _219  and  _221
REMARK   88  A    between atoms: _221  and  _222
REMARK   89  A    between atoms: _224  and  _226
REMARK   90  A    between atoms: _226  and  _227
REMARK   91  A    between atoms: _226  and  _229
REMARK   92  A    between atoms: _229  and  _230
REMARK   93  A    between atoms: _234  and  ZN_1038
REMARK   94  A    between atoms: _235  and  _237
REMARK   95  A    between atoms: _237  and  _238
REMARK   96  A    between atoms: _237  and  _240
REMARK   97  A    between atoms: _240  and  _241
REMARK   98  A    between atoms: _244  and  _246
REMARK   99  A    between atoms: _246  and  _247
REMARK  100  A    between atoms: _246  and  _249
REMARK  101  A    between atoms: _249  and  _250
REMARK  102  A    between atoms: _260  and  _262
REMARK  103  A    between atoms: _262  and  _263
REMARK  104  A    between atoms: _262  and  _265
REMARK  105  A    between atoms: _265  and  _266
REMARK  106  A    between atoms: _269  and  _271
REMARK  107  A    between atoms: _271  and  _272
REMARK  108  A    between atoms: _271  and  _274
REMARK  109  A    between atoms: _274  and  _275
REMARK  110  A    between atoms: _279  and  _280
REMARK  111  A    between atoms: _285  and  _287
REMARK  112  A    between atoms: _287  and  _288
REMARK  113  A    between atoms: _291  and  _293
REMARK  114  A    between atoms: _293  and  _294
REMARK  115  A    between atoms: _293  and  _296
REMARK  116  A    between atoms: _296  and  _297
REMARK  117  A    between atoms: _297  and  _298
REMARK  118  A    between atoms: _301  and  _303
REMARK  119  A    between atoms: _303  and  _304
REMARK  120  A    between atoms: _303  and  _306
REMARK  121  A    between atoms: _306  and  _307
REMARK  122  A    between atoms: _307  and  _308
REMARK  123  A    between atoms: _308  and  _310
REMARK  124  A    between atoms: _310  and  ZN_1037
REMARK  125  A    between atoms: _311  and  _313
REMARK  126  A    between atoms: _313  and  _314
REMARK  127  A    between atoms: _313  and  _316
REMARK  128  A    between atoms: _316  and  _317
REMARK  129  A    between atoms: _323  and  _325
REMARK  130  A    between atoms: _325  and  _326
REMARK  131  A    between atoms: _328  and  _330
REMARK  132  A    between atoms: _330  and  _331
REMARK  133  A    between atoms: _330  and  _333
REMARK  134  A    between atoms: _333  and  _334
REMARK  135  A    between atoms: _337  and  _339
REMARK  136  A    between atoms: _339  and  _340
REMARK  137  A    between atoms: _339  and  _342
REMARK  138  A    between atoms: _342  and  _343
REMARK  139  A    between atoms: _346  and  _348
REMARK  140  A    between atoms: _348  and  _349
REMARK  141  A    between atoms: _348  and  _351
REMARK  142  A    between atoms: _351  and  _352
REMARK  143  A    between atoms: _357  and  _359
REMARK  144  A    between atoms: _359  and  _360
REMARK  145  A    between atoms: _359  and  _362
REMARK  146  A    between atoms: _362  and  _363
REMARK  147  A    between atoms: _363  and  _365
REMARK  148  A    between atoms: _365  and  ZN_1038
REMARK  149  A    between atoms: _366  and  _368
REMARK  150  A    between atoms: _368  and  _369
REMARK  151  A    between atoms: _368  and  _371
REMARK  152  A    between atoms: _371  and  _372
REMARK  153  A    between atoms: _374  and  _376
REMARK  154  A    between atoms: _376  and  _377
REMARK  155  A    between atoms: _376  and  _379
REMARK  156  A    between atoms: _379  and  _380
REMARK  157  A    between atoms: _382  and  _384
REMARK  158  A    between atoms: _384  and  _385
REMARK  159  A    between atoms: _384  and  _387
REMARK  160  A    between atoms: _387  and  _388
REMARK  161  A    between atoms: _391  and  _393
REMARK  162  A    between atoms: _393  and  _394
REMARK  163  A    between atoms: _393  and  _396
REMARK  164  A    between atoms: _396  and  _397
REMARK  165  A    between atoms: _397  and  _398
REMARK  166  A    between atoms: _401  and  _403
REMARK  167  A    between atoms: _403  and  _404
REMARK  168  A    between atoms: _403  and  _406
REMARK  169  A    between atoms: _406  and  _407
REMARK  170  A    between atoms: _412  and  _413
REMARK  171  A    between atoms: _415  and  _417
REMARK  172  A    between atoms: _417  and  _418
REMARK  173  A    between atoms: _417  and  _420
REMARK  174  A    between atoms: _420  and  _421
REMARK  175  A    between atoms: _424  and  _426
REMARK  176  A    between atoms: _426  and  _427
REMARK  177  A    between atoms: _426  and  _429
REMARK  178  A    between atoms: _429  and  _430
REMARK  179  A    between atoms: _433  and  _435
REMARK  180  A    between atoms: _435  and  _436
REMARK  181  A    between atoms: _435  and  _438
REMARK  182  A    between atoms: _438  and  _439
REMARK  183  A    between atoms: _439  and  _440
REMARK  184  A    between atoms: _440  and  _441
REMARK  185  A    between atoms: _450  and  _452
REMARK  186  A    between atoms: _452  and  _453
REMARK  187  A    between atoms: _452  and  _455
REMARK  188  A    between atoms: _458  and  _460
REMARK  189  A    between atoms: _460  and  _461
REMARK  190  A    between atoms: _460  and  _463
REMARK  191  A    between atoms: _463  and  _464
REMARK  192  A    between atoms: _467  and  _469
REMARK  193  A    between atoms: _469  and  _470
REMARK  194  A    between atoms: _469  and  _472
REMARK  195  A    between atoms: _474  and  _476
REMARK  196  A    between atoms: _476  and  _477
REMARK  197  A    between atoms: _476  and  _479
REMARK  198  A    between atoms: _479  and  _480
REMARK  199  A    between atoms: _490  and  _492
REMARK  200  A    between atoms: _492  and  _493
REMARK  201  A    between atoms: _492  and  _495
REMARK  202  A    between atoms: _495  and  _496
REMARK  203  A    between atoms: _496  and  _497
REMARK  204  A    between atoms: _497  and  _498
REMARK  205  A    between atoms: _498  and  _499
REMARK  206  A    between atoms: _503  and  _505
REMARK  207  A    between atoms: _505  and  _506
REMARK  208  A    between atoms: _505  and  _508
REMARK  209  A    between atoms: _508  and  _509
REMARK  210  A    between atoms: _512  and  _513
REMARK  211  A    between atoms: _519  and  _520
REMARK  212  A    between atoms: _525  and  _527
REMARK  213  A    between atoms: _527  and  _528
REMARK  214  A    between atoms: _527  and  _530
REMARK  215  A    between atoms: _530  and  _531
REMARK  216  A    between atoms: _531  and  _532
REMARK  217  A    between atoms: _535  and  _537
REMARK  218  A    between atoms: _537  and  _538
REMARK  219  A    between atoms: _537  and  _540
REMARK  220  A    between atoms: _540  and  _541
REMARK  221  A    between atoms: _541  and  _542
REMARK  222  A    between atoms: _542  and  _543
REMARK  223  A    between atoms: _552  and  _554
REMARK  224  A    between atoms: _554  and  _555
REMARK  225  A    between atoms: _554  and  _557
REMARK  226  A    between atoms: _557  and  _558
REMARK  227  A    between atoms: _561  and  _563
REMARK  228  A    between atoms: _563  and  _564
REMARK  229  A    between atoms: _563  and  _566
REMARK  230  A    between atoms: _566  and  _567
REMARK  231  A    between atoms: _569  and  _571
REMARK  232  A    between atoms: _571  and  _572
REMARK  233  A    between atoms: _571  and  _574
REMARK  234  A    between atoms: _574  and  _575
REMARK  235  A    between atoms: _575  and  _576
REMARK  236  A    between atoms: _576  and  _577
REMARK  237  A    between atoms: _577  and  _578
REMARK  238  A    between atoms: _582  and  _584
REMARK  239  A    between atoms: _584  and  _585
REMARK  240  A    between atoms: _584  and  _587
REMARK  241  A    between atoms: _587  and  _588
REMARK  242  A    between atoms: _591  and  _593
REMARK  243  A    between atoms: _593  and  _594
REMARK  244  A    between atoms: _596  and  _598
REMARK  245  A    between atoms: _598  and  _599
REMARK  246  A    between atoms: _598  and  _601
REMARK  247  A    between atoms: _601  and  _602
REMARK  248  A    between atoms: _604  and  _606
REMARK  249  A    between atoms: _606  and  _607
REMARK  250  A    between atoms: _609  and  _611
REMARK  251  A    between atoms: _611  and  _612
REMARK  252  A    between atoms: _611  and  _614
REMARK  253  A    between atoms: _614  and  _615
REMARK  254  A    between atoms: _620  and  _622
REMARK  255  A    between atoms: _622  and  _623
REMARK  256  A    between atoms: _622  and  _625
REMARK  257  A    between atoms: _625  and  _626
REMARK  258  A    between atoms: _629  and  _631
REMARK  259  A    between atoms: _631  and  _632
REMARK  260  A    between atoms: _631  and  _634
REMARK  261  A    between atoms: _634  and  _635
REMARK  262  A    between atoms: _641  and  _643
REMARK  263  A    between atoms: _643  and  _644
REMARK  264  A    between atoms: _643  and  _646
REMARK  265  A    between atoms: _646  and  _647
REMARK  266  A    between atoms: _647  and  _648
REMARK  267  A    between atoms: _651  and  _653
REMARK  268  A    between atoms: _653  and  _654
REMARK  269  A    between atoms: _653  and  _656
REMARK  270  A    between atoms: _656  and  _657
REMARK  271  A    between atoms: _657  and  _658
REMARK  272  A    between atoms: _663  and  _665
REMARK  273  A    between atoms: _665  and  _666
REMARK  274  A    between atoms: _665  and  _668
REMARK  275  A    between atoms: _668  and  _669
REMARK  276  A    between atoms: _669  and  _670
REMARK  277  A    between atoms: _670  and  _671
REMARK  278  A    between atoms: _680  and  _682
REMARK  279  A    between atoms: _682  and  _683
REMARK  280  A    between atoms: _682  and  _685
REMARK  281  A    between atoms: _685  and  _686
REMARK  282  A    between atoms: _686  and  _687
REMARK  283  A    between atoms: _687  and  _688
REMARK  284  A    between atoms: _697  and  _699
REMARK  285  A    between atoms: _699  and  _700
REMARK  286  A    between atoms: _699  and  _702
REMARK  287  A    between atoms: _702  and  _703
REMARK  288  A    between atoms: _708  and  _709
REMARK  289  A    between atoms: _711  and  _713
REMARK  290  A    between atoms: _713  and  _714
REMARK  291  A    between atoms: _713  and  _716
REMARK  292  A    between atoms: _716  and  _717
REMARK  293  A    between atoms: _720  and  _722
REMARK  294  A    between atoms: _722  and  _723
REMARK  295  A    between atoms: _722  and  _725
REMARK  296  A    between atoms: _725  and  _726
REMARK  297  A    between atoms: _726  and  _727
REMARK  298  A    between atoms: _727  and  _728
REMARK  299  A    between atoms: _728  and  _729
REMARK  300  A    between atoms: _733  and  _735
REMARK  301  A    between atoms: _735  and  _736
REMARK  302  A    between atoms: _735  and  _738
REMARK  303  A    between atoms: _738  and  _739
REMARK  304  A    between atoms: _744  and  _746
REMARK  305  A    between atoms: _746  and  _747
REMARK  306  A    between atoms: _746  and  _749
REMARK  307  A    between atoms: _749  and  _750
REMARK  308  A    between atoms: _760  and  _762
REMARK  309  A    between atoms: _762  and  _763
REMARK  310  A    between atoms: _762  and  _765
REMARK  311  A    between atoms: _765  and  _766
REMARK  312  A    between atoms: _766  and  _767
REMARK  313  A    between atoms: _770  and  _772
REMARK  314  A    between atoms: _772  and  _773
REMARK  315  A    between atoms: _772  and  _775
REMARK  316  A    between atoms: _775  and  _776
REMARK  317  A    between atoms: _779  and  _781
REMARK  318  A    between atoms: _781  and  _782
REMARK  319  A    between atoms: _781  and  _784
REMARK  320  A    between atoms: _784  and  _785
REMARK  321  A    between atoms: _790  and  _792
REMARK  322  A    between atoms: _792  and  _793
REMARK  323  A    between atoms: _792  and  _795
REMARK  324  A    between atoms: _795  and  _796
REMARK  325  A    between atoms: _802  and  _804
REMARK  326  A    between atoms: _804  and  _805
REMARK  327  A    between atoms: _804  and  _807
REMARK  328  A    between atoms: _807  and  _808
REMARK  329  A    between atoms: _810  and  _812
REMARK  330  A    between atoms: _812  and  _813
REMARK  331  A    between atoms: _815  and  _817
REMARK  332  A    between atoms: _817  and  _818
REMARK  333  A    between atoms: _817  and  _820
REMARK  334  A    between atoms: _820  and  _821
REMARK  335  A    between atoms: _826  and  _827
REMARK  336  A    between atoms: _829  and  _831
REMARK  337  A    between atoms: _831  and  _832
REMARK  338  A    between atoms: _831  and  _834
REMARK  339  A    between atoms: _834  and  _835
REMARK  340  A    between atoms: _840  and  _841
REMARK  341  A    between atoms: _843  and  _845
REMARK  342  A    between atoms: _845  and  _846
REMARK  343  A    between atoms: _845  and  _848
REMARK  344  A    between atoms: _848  and  _849
REMARK  345  A    between atoms: _853  and  ZN_1037
REMARK  346  A    between atoms: _854  and  _856
REMARK  347  A    between atoms: _856  and  _857
REMARK  348  A    between atoms: _856  and  _859
REMARK  349  A    between atoms: _859  and  _860
REMARK  350  A    between atoms: _860  and  _861
REMARK  351  A    between atoms: _864  and  _866
REMARK  352  A    between atoms: _866  and  _867
REMARK  353  A    between atoms: _866  and  _869
REMARK  354  A    between atoms: _869  and  _870
REMARK  355  A    between atoms: _870  and  _871
REMARK  356  A    between atoms: _871  and  _872
REMARK  357  A    between atoms: _881  and  _883
REMARK  358  A    between atoms: _883  and  _884
REMARK  359  A    between atoms: _883  and  _886
REMARK  360  A    between atoms: _886  and  _887
REMARK  361  A    between atoms: _887  and  _888
REMARK  362  A    between atoms: _888  and  _889
REMARK  363  A    between atoms: _889  and  _890
REMARK  364  A    between atoms: _894  and  _896
REMARK  365  A    between atoms: _896  and  _897
REMARK  366  A    between atoms: _896  and  _899
REMARK  367  A    between atoms: _899  and  _900
REMARK  368  A    between atoms: _905  and  _906
REMARK  369  A    between atoms: _908  and  _910
REMARK  370  A    between atoms: _910  and  _911
REMARK  371  A    between atoms: _910  and  _913
REMARK  372  A    between atoms: _913  and  _914
REMARK  373  A    between atoms: _914  and  _915
REMARK  374  A    between atoms: _915  and  _916
REMARK  375  A    between atoms: _916  and  _917
REMARK  376  A    between atoms: _921  and  _923
REMARK  377  A    between atoms: _923  and  _924
REMARK  378  A    between atoms: _923  and  _926
REMARK  379  A    between atoms: _926  and  _927
REMARK  380  A    between atoms: _932  and  _933
REMARK  381  A    between atoms: _935  and  _937
REMARK  382  A    between atoms: _937  and  _938
REMARK  383  A    between atoms: _937  and  _940
REMARK  384  A    between atoms: _940  and  _941
REMARK  385  A    between atoms: _946  and  _947
REMARK  386  A    between atoms: _949  and  _951
REMARK  387  A    between atoms: _951  and  _952
REMARK  388  A    between atoms: _956  and  _957
REMARK  389  A    between atoms: _962  and  _964
REMARK  390  A    between atoms: _964  and  _965
REMARK  391  A    between atoms: _964  and  _967
REMARK  392  A    between atoms: _967  and  _968
REMARK  393  A    between atoms: _970  and  _972
REMARK  394  A    between atoms: _972  and  _973
REMARK  395  A    between atoms: _972  and  _975
REMARK  396  A    between atoms: _975  and  _976
REMARK  397  A    between atoms: _981  and  _983
REMARK  398  A    between atoms: _983  and  _984
REMARK  399  A    between atoms: _983  and  _986
REMARK  400  A    between atoms: _986  and  _987
REMARK  401  A    between atoms: _987  and  _988
REMARK  402  A    between atoms: _988  and  _989
REMARK  403  A    between atoms: _989  and  _990
REMARK  404  A    between atoms: _994  and  _996
REMARK  405  A    between atoms: _996  and  _997
REMARK  406  A    between atoms: _996  and  _999
REMARK  407  A    between atoms: _999  and  _1000
REMARK  408  A    between atoms: _1005  and  _1006
REMARK  409  A    between atoms: _1008  and  _1010
REMARK  410  A    between atoms: _1010  and  _1011
REMARK  411  A    between atoms: _1014  and  _1016
REMARK  412  A    between atoms: _1016  and  _1017
REMARK  413  A    between atoms: _1019  and  _1021
REMARK  414  A    between atoms: _1021  and  _1022
REMARK  415  A    between atoms: _1021  and  _1024
REMARK  416  A    between atoms: _1024  and  _1025
REMARK  417  A    between atoms: _1025  and  _1026
REMARK  418  A    between atoms: _1029  and  _1031
REMARK  419  A    between atoms: _1031  and  _1032
REMARK  420  A    between atoms: _1031  and  _1034
REMARK  421  A    between atoms: _1034  and  _1035
REMARK                            x       y       z     vdW  Elec       q    Type
REMARK                         _______ _______ _______ _____ _____    ______ ____
ROOT
ATOM      1  CG  LYS A   1      27.157  68.311  41.872  0.00  0.00    -0.000 C 
ENDROOT
BRANCH   1   2
ATOM      2  CB  LYS A   1      27.035  69.375  42.981  0.00  0.00    +0.025 C 
BRANCH   2   3
ATOM      3  CA  LYS A   1      27.354  70.808  42.519  0.00  0.00    +0.133 C 
BRANCH   3   4
ATOM      4  N   LYS A   1      27.107  71.759  43.587  0.00  0.00    -0.239 NA
ATOM      5  H   LYS A   1      26.582  71.456  44.432  0.00  0.00    +0.142 HD
ENDBRANCH   3   4
BRANCH   3   6
ATOM      6  C   LYS A   1      26.546  71.193  41.297  0.00  0.00    +0.224 C 
ATOM      7  O   LYS A   1      27.052  71.202  40.176  0.00  0.00    -0.287 OA
ENDBRANCH   3   6
ENDBRANCH   2   3
ENDBRANCH   1   2
BRANCH   1   8
ATOM      8  CD  LYS A   1      26.540  66.963  42.343  0.00  0.00    -0.024 C 
BRANCH   8   9
ATOM      9  CE  LYS A   1      26.620  65.851  41.257  0.00  0.00    -0.086 C 
BRANCH   9  10
ATOM     10  NZ  LYS A   1      25.388  65.741  40.346  0.00  0.00    +0.380 N 
ATOM     11  HZ1 LYS A   1      24.549  65.533  40.924  0.00  0.00    -0.089 HD
ATOM     12  HZ2 LYS A   1      25.250  66.640  39.842  0.00  0.00    -0.089 HD
ATOM     13  HZ3 LYS A   1      25.535  64.975  39.658  0.00  0.00    -0.089 HD
ENDBRANCH   9  10
ENDBRANCH   8   9
ENDBRANCH   1   8
TORSDOF 7
REMARK  Name = ../refined-set-2016/2xef/2xef_pocket.pdb
REMARK  421 active torsions:
REMARK  status: ('A' for Active; 'I' for Inactive)
REMARK    1  A    between atoms: _1  and  _3
REMARK    2  A    between atoms: _3  and  _4
REMARK    3  A    between atoms: _7  and  _9
REMARK    4  A    between atoms: _9  and  _10
REMARK    5  A    between atoms: _9  and  _12
REMARK    6  A    between atoms: _12  and  _13
REMARK    7  A    between atoms: _19  and  _21
REMARK    8  A    between atoms: _21  and  _22
REMARK    9  A    between atoms: _21  and  _24
REMARK   10  A    between atoms: _24  and  _25
REMARK   11  A    between atoms: _30  and  _31
REMARK   12  A    between atoms: _33  and  _35
REMARK   13  A    between atoms: _35  and  _36
REMARK   14  A    between atoms: _38  and  _40
REMARK   15  A    between atoms: _40  and  _41
REMARK   16  A    between atoms: _40  and  _43
REMARK   17  A    between atoms: _43  and  _44
REMARK   18  A    between atoms: _44  and  _45
REMARK   19  A    between atoms: _45  and  _46
REMARK   20  A    between atoms: _46  and  _47
REMARK   21  A    between atoms: _51  and  _53
REMARK   22  A    between atoms: _53  and  _54
REMARK   23  A    between atoms: _53  and  _56
REMARK   24  A    between atoms: _59  and  _61
REMARK   25  A    between atoms: _61  and  _62
REMARK   26  A    between atoms: _61  and  _64
REMARK   27  A    between atoms: _64  and  _65
REMARK   28  A    between atoms: _71  and  _73
REMARK   29  A    between atoms: _73  and  _74
REMARK   30  A    between atoms: _73  and  _76
REMARK   31  A    between atoms: _76  and  _77
REMARK   32  A    between atoms: _77  and  _78
REMARK   33  A    between atoms: _78  and  _79
REMARK   34  A    between atoms: _88  and  _90
REMARK   35  A    between atoms: _90  and  _91
REMARK   36  A    between atoms: _93  and  _95
REMARK   37  A    between atoms: _95  and  _96
REMARK   38  A    between atoms: _95  and  _98
REMARK   39  A    between atoms: _98  and  _99
REMARK   40  A    between atoms: _99  and  _100
REMARK   41  A    between atoms: _100  and  _101
REMARK   42  A    between atoms: _101  and  _102
REMARK   43  A    between atoms: _106  and  _108
REMARK   44  A    between atoms: _108  and  _109
REMARK   45  A    between atoms: _108  and  _111
REMARK   46  A    between atoms: _111  and  _112
REMARK   47  A    between atoms: _117  and  _118
REMARK   48  A    between atoms: _120  and  _122
REMARK   49  A    between atoms: _122  and  _123
REMARK   50  A    between atoms: _122  and  _125
REMARK   51  A    between atoms: _125  and  _126
REMARK   52  A    between atoms: _126  and  _127
REMARK   53  A    between atoms: _132  and  _134
REMARK   54  A    between atoms: _134  and  _135
REMARK   55  A    between atoms: _134  and  _137
REMARK   56  A    between atoms: _137  and  _138
REMARK   57  A    between atoms: _138  and  _139
REMARK   58  A    between atoms: _139  and  _140
REMARK   59  A    between atoms: _149  and  _151
REMARK   60  A    between atoms: _151  and  _152
REMARK   61  A    between atoms: _154  and  _156
REMARK   62  A    between atoms: _156  and  _157
REMARK   63  A    between atoms: _156  and  _159
REMARK   64  A    between atoms: _159  and  _160
REMARK   65  A    between atoms: _165  and  _167
REMARK   66  A    between atoms: _167  and  _168
REMARK   67  A    between atoms: _167  and  _170
REMARK   68  A    between atoms: _170  and  _171
REMARK   69  A    between atoms: _174  and  _176
REMARK   70  A    between atoms: _176  and  _177
REMARK   71  A    between atoms: _176  and  _179
REMARK   72  A    between atoms: _179  and  _180
REMARK   73  A    between atoms: _183  and  _185
REMARK   74  A    between atoms: _185  and  _186
REMARK   75  A    between atoms: _185  and  _188
REMARK   76  A    between atoms: _188  and  _189
REMARK   77  A    between atoms: _194  and  _196
REMARK   78  A    between atoms: _196  and  _197
REMARK   79  A    between atoms: _196  and  _199
REMARK   80  A    between atoms: _199  and  _200
REMARK   81  A    between atoms: _203  and  _205
REMARK   82  A    between atoms: _205  and  _206
REMARK   83  A    between atoms: _205  and  _208
REMARK   84  A    between atoms: _208  and  _209
REMARK   85  A    between atoms: _214  and  _216
REMARK   86  A    between atoms: _216  and  _217
REMARK   87  A    between atoms: _219  and  _221
REMARK   88  A    between atoms: _221  and  _222
REMARK   89  A    between atoms: _224  and  _226
REMARK   90  A    between atoms: _226  and  _227
REMARK   91  A    between atoms: _226  and  _229
REMARK   92  A    between atoms: _229  and  _230
REMARK   93  A    between atoms: _234  and  ZN_1038
REMARK   94  A    between atoms: _235  and  _237
REMARK   95  A    between atoms: _237  and  _238
REMARK   96  A    between atoms: _237  and  _240
REMARK   97  A    between atoms: _240  and  _241
REMARK   98  A    between atoms: _244  and  _246
REMARK   99  A    between atoms: _246  and  _247
REMARK  100  A    between atoms: _246  and  _249
REMARK  101  A    between atoms: _249  and  _250
REMARK  102  A    between atoms: _260  and  _262
REMARK  103  A    between atoms: _262  and  _263
REMARK  104  A    between atoms: _262  and  _265
REMARK  105  A    between atoms: _265  and  _266
REMARK  106  A    between atoms: _269  and  _271
REMARK  107  A    between atoms: _271  and  _272
REMARK  108  A    between atoms: _271  and  _274
REMARK  109  A    between atoms: _274  and  _275
REMARK  110  A    between atoms: _279  and  _280
REMARK  111  A    between atoms: _285  and  _287
REMARK  112  A    between atoms: _287  and  _288
REMARK  113  A    between atoms: _291  and  _293
REMARK  114  A    between atoms: _293  and  _294
REMARK  115  A    between atoms: _293  and  _296
REMARK  116  A    between atoms: _296  and  _297
REMARK  117  A    between atoms: _297  and  _298
REMARK  118  A    between atoms: _301  and  _303
REMARK  119  A    between atoms: _303  and  _304
REMARK  120  A    between atoms: _303  and  _306
REMARK  121  A    between atoms: _306  and  _307
REMARK  122  A    between atoms: _307  and  _308
REMARK  123  A    between atoms: _308  and  _310
REMARK  124  A    between atoms: _310  and  ZN_1037
REMARK  125  A    between atoms: _311  and  _313
REMARK  126  A    between atoms: _313  and  _314
REMARK  127  A    between atoms: _313  and  _316
REMARK  128  A    between atoms: _316  and  _317
REMARK  129  A    between atoms: _323  and  _325
REMARK  130  A    between atoms: _325  and  _326
REMARK  131  A    between atoms: _328  and  _330
REMARK  132  A    between atoms: _330  and  _331
REMARK  133  A    between atoms: _330  and  _333
REMARK  134  A    between atoms: _333  and  _334
REMARK  135  A    between atoms: _337  and  _339
REMARK  136  A    between atoms: _339  and  _340
REMARK  137  A    between atoms: _339  and  _342
REMARK  138  A    between atoms: _342  and  _343
REMARK  139  A    between atoms: _346  and  _348
REMARK  140  A    between atoms: _348  and  _349
REMARK  141  A    between atoms: _348  and  _351
REMARK  142  A    between atoms: _351  and  _352
REMARK  143  A    between atoms: _357  and  _359
REMARK  144  A    between atoms: _359  and  _360
REMARK  145  A    between atoms: _359  and  _362
REMARK  146  A    between atoms: _362  and  _363
REMARK  147  A    between atoms: _363  and  _365
REMARK  148  A    between atoms: _365  and  ZN_1038
REMARK  149  A    between atoms: _366  and  _368
REMARK  150  A    between atoms: _368  and  _369
REMARK  151  A    between atoms: _368  and  _371
REMARK  152  A    between atoms: _371  and  _372
REMARK  153  A    between atoms: _374  and  _376
REMARK  154  A    between atoms: _376  and  _377
REMARK  155  A    between atoms: _376  and  _379
REMARK  156  A    between atoms: _379  and  _380
REMARK  157  A    between atoms: _382  and  _384
REMARK  158  A    between atoms: _384  and  _385
REMARK  159  A    between atoms: _384  and  _387
REMARK  160  A    between atoms: _387  and  _388
REMARK  161  A    between atoms: _391  and  _393
REMARK  162  A    between atoms: _393  and  _394
REMARK  163  A    between atoms: _393  and  _396
REMARK  164  A    between atoms: _396  and  _397
REMARK  165  A    between atoms: _397  and  _398
REMARK  166  A    between atoms: _401  and  _403
REMARK  167  A    between atoms: _403  and  _404
REMARK  168  A    between atoms: _403  and  _406
REMARK  169  A    between atoms: _406  and  _407
REMARK  170  A    between atoms: _412  and  _413
REMARK  171  A    between atoms: _415  and  _417
REMARK  172  A    between atoms: _417  and  _418
REMARK  173  A    between atoms: _417  and  _420
REMARK  174  A    between atoms: _420  and  _421
REMARK  175  A    between atoms: _424  and  _426
REMARK  176  A    between atoms: _426  and  _427
REMARK  177  A    between atoms: _426  and  _429
REMARK  178  A    between atoms: _429  and  _430
REMARK  179  A    between atoms: _433  and  _435
REMARK  180  A    between atoms: _435  and  _436
REMARK  181  A    between atoms: _435  and  _438
REMARK  182  A    between atoms: _438  and  _439
REMARK  183  A    between atoms: _439  and  _440
REMARK  184  A    between atoms: _440  and  _441
REMARK  185  A    between atoms: _450  and  _452
REMARK  186  A    between atoms: _452  and  _453
REMARK  187  A    between atoms: _452  and  _455
REMARK  188  A    between atoms: _458  and  _460
REMARK  189  A    between atoms: _460  and  _461
REMARK  190  A    between atoms: _460  and  _463
REMARK  191  A    between atoms: _463  and  _464
REMARK  192  A    between atoms: _467  and  _469
REMARK  193  A    between atoms: _469  and  _470
REMARK  194  A    between atoms: _469  and  _472
REMARK  195  A    between atoms: _474  and  _476
REMARK  196  A    between atoms: _476  and  _477
REMARK  197  A    between atoms: _476  and  _479
REMARK  198  A    between atoms: _479  and  _480
REMARK  199  A    between atoms: _490  and  _492
REMARK  200  A    between atoms: _492  and  _493
REMARK  201  A    between atoms: _492  and  _495
REMARK  202  A    between atoms: _495  and  _496
REMARK  203  A    between atoms: _496  and  _497
REMARK  204  A    between atoms: _497  and  _498
REMARK  205  A    between atoms: _498  and  _499
REMARK  206  A    between atoms: _503  and  _505
REMARK  207  A    between atoms: _505  and  _506
REMARK  208  A    between atoms: _505  and  _508
REMARK  209  A    between atoms: _508  and  _509
REMARK  210  A    between atoms: _512  and  _513
REMARK  211  A    between atoms: _519  and  _520
REMARK  212  A    between atoms: _525  and  _527
REMARK  213  A    between atoms: _527  and  _528
REMARK  214  A    between atoms: _527  and  _530
REMARK  215  A    between atoms: _530  and  _531
REMARK  216  A    between atoms: _531  and  _532
REMARK  217  A    between atoms: _535  and  _537
REMARK  218  A    between atoms: _537  and  _538
REMARK  219  A    between atoms: _537  and  _540
REMARK  220  A    between atoms: _540  and  _541
REMARK  221  A    between atoms: _541  and  _542
REMARK  222  A    between atoms: _542  and  _543
REMARK  223  A    between atoms: _552  and  _554
REMARK  224  A    between atoms: _554  and  _555
REMARK  225  A    between atoms: _554  and  _557
REMARK  226  A    between atoms: _557  and  _558
REMARK  227  A    between atoms: _561  and  _563
REMARK  228  A    between atoms: _563  and  _564
REMARK  229  A    between atoms: _563  and  _566
REMARK  230  A    between atoms: _566  and  _567
REMARK  231  A    between atoms: _569  and  _571
REMARK  232  A    between atoms: _571  and  _572
REMARK  233  A    between atoms: _571  and  _574
REMARK  234  A    between atoms: _574  and  _575
REMARK  235  A    between atoms: _575  and  _576
REMARK  236  A    between atoms: _576  and  _577
REMARK  237  A    between atoms: _577  and  _578
REMARK  238  A    between atoms: _582  and  _584
REMARK  239  A    between atoms: _584  and  _585
REMARK  240  A    between atoms: _584  and  _587
REMARK  241  A    between atoms: _587  and  _588
REMARK  242  A    between atoms: _591  and  _593
REMARK  243  A    between atoms: _593  and  _594
REMARK  244  A    between atoms: _596  and  _598
REMARK  245  A    between atoms: _598  and  _599
REMARK  246  A    between atoms: _598  and  _601
REMARK  247  A    between atoms: _601  and  _602
REMARK  248  A    between atoms: _604  and  _606
REMARK  249  A    between atoms: _606  and  _607
REMARK  250  A    between atoms: _609  and  _611
REMARK  251  A    between atoms: _611  and  _612
REMARK  252  A    between atoms: _611  and  _614
REMARK  253  A    between atoms: _614  and  _615
REMARK  254  A    between atoms: _620  and  _622
REMARK  255  A    between atoms: _622  and  _623
REMARK  256  A    between atoms: _622  and  _625
REMARK  257  A    between atoms: _625  and  _626
REMARK  258  A    between atoms: _629  and  _631
REMARK  259  A    between atoms: _631  and  _632
REMARK  260  A    between atoms: _631  and  _634
REMARK  261  A    between atoms: _634  and  _635
REMARK  262  A    between atoms: _641  and  _643
REMARK  263  A    between atoms: _643  and  _644
REMARK  264  A    between atoms: _643  and  _646
REMARK  265  A    between atoms: _646  and  _647
REMARK  266  A    between atoms: _647  and  _648
REMARK  267  A    between atoms: _651  and  _653
REMARK  268  A    between atoms: _653  and  _654
REMARK  269  A    between atoms: _653  and  _656
REMARK  270  A    between atoms: _656  and  _657
REMARK  271  A    between atoms: _657  and  _658
REMARK  272  A    between atoms: _663  and  _665
REMARK  273  A    between atoms: _665  and  _666
REMARK  274  A    between atoms: _665  and  _668
REMARK  275  A    between atoms: _668  and  _669
REMARK  276  A    between atoms: _669  and  _670
REMARK  277  A    between atoms: _670  and  _671
REMARK  278  A    between atoms: _680  and  _682
REMARK  279  A    between atoms: _682  and  _683
REMARK  280  A    between atoms: _682  and  _685
REMARK  281  A    between atoms: _685  and  _686
REMARK  282  A    between atoms: _686  and  _687
REMARK  283  A    between atoms: _687  and  _688
REMARK  284  A    between atoms: _697  and  _699
REMARK  285  A    between atoms: _699  and  _700
REMARK  286  A    between atoms: _699  and  _702
REMARK  287  A    between atoms: _702  and  _703
REMARK  288  A    between atoms: _708  and  _709
REMARK  289  A    between atoms: _711  and  _713
REMARK  290  A    between atoms: _713  and  _714
REMARK  291  A    between atoms: _713  and  _716
REMARK  292  A    between atoms: _716  and  _717
REMARK  293  A    between atoms: _720  and  _722
REMARK  294  A    between atoms: _722  and  _723
REMARK  295  A    between atoms: _722  and  _725
REMARK  296  A    between atoms: _725  and  _726
REMARK  297  A    between atoms: _726  and  _727
REMARK  298  A    between atoms: _727  and  _728
REMARK  299  A    between atoms: _728  and  _729
REMARK  300  A    between atoms: _733  and  _735
REMARK  301  A    between atoms: _735  and  _736
REMARK  302  A    between atoms: _735  and  _738
REMARK  303  A    between atoms: _738  and  _739
REMARK  304  A    between atoms: _744  and  _746
REMARK  305  A    between atoms: _746  and  _747
REMARK  306  A    between atoms: _746  and  _749
REMARK  307  A    between atoms: _749  and  _750
REMARK  308  A    between atoms: _760  and  _762
REMARK  309  A    between atoms: _762  and  _763
REMARK  310  A    between atoms: _762  and  _765
REMARK  311  A    between atoms: _765  and  _766
REMARK  312  A    between atoms: _766  and  _767
REMARK  313  A    between atoms: _770  and  _772
REMARK  314  A    between atoms: _772  and  _773
REMARK  315  A    between atoms: _772  and  _775
REMARK  316  A    between atoms: _775  and  _776
REMARK  317  A    between atoms: _779  and  _781
REMARK  318  A    between atoms: _781  and  _782
REMARK  319  A    between atoms: _781  and  _784
REMARK  320  A    between atoms: _784  and  _785
REMARK  321  A    between atoms: _790  and  _792
REMARK  322  A    between atoms: _792  and  _793
REMARK  323  A    between atoms: _792  and  _795
REMARK  324  A    between atoms: _795  and  _796
REMARK  325  A    between atoms: _802  and  _804
REMARK  326  A    between atoms: _804  and  _805
REMARK  327  A    between atoms: _804  and  _807
REMARK  328  A    between atoms: _807  and  _808
REMARK  329  A    between atoms: _810  and  _812
REMARK  330  A    between atoms: _812  and  _813
REMARK  331  A    between atoms: _815  and  _817
REMARK  332  A    between atoms: _817  and  _818
REMARK  333  A    between atoms: _817  and  _820
REMARK  334  A    between atoms: _820  and  _821
REMARK  335  A    between atoms: _826  and  _827
REMARK  336  A    between atoms: _829  and  _831
REMARK  337  A    between atoms: _831  and  _832
REMARK  338  A    between atoms: _831  and  _834
REMARK  339  A    between atoms: _834  and  _835
REMARK  340  A    between atoms: _840  and  _841
REMARK  341  A    between atoms: _843  and  _845
REMARK  342  A    between atoms: _845  and  _846
REMARK  343  A    between atoms: _845  and  _848
REMARK  344  A    between atoms: _848  and  _849
REMARK  345  A    between atoms: _853  and  ZN_1037
REMARK  346  A    between atoms: _854  and  _856
REMARK  347  A    between atoms: _856  and  _857
REMARK  348  A    between atoms: _856  and  _859
REMARK  349  A    between atoms: _859  and  _860
REMARK  350  A    between atoms: _860  and  _861
REMARK  351  A    between atoms: _864  and  _866
REMARK  352  A    between atoms: _866  and  _867
REMARK  353  A    between atoms: _866  and  _869
REMARK  354  A    between atoms: _869  and  _870
REMARK  355  A    between atoms: _870  and  _871
REMARK  356  A    between atoms: _871  and  _872
REMARK  357  A    between atoms: _881  and  _883
REMARK  358  A    between atoms: _883  and  _884
REMARK  359  A    between atoms: _883  and  _886
REMARK  360  A    between atoms: _886  and  _887
REMARK  361  A    between atoms: _887  and  _888
REMARK  362  A    between atoms: _888  and  _889
REMARK  363  A    between atoms: _889  and  _890
REMARK  364  A    between atoms: _894  and  _896
REMARK  365  A    between atoms: _896  and  _897
REMARK  366  A    between atoms: _896  and  _899
REMARK  367  A    between atoms: _899  and  _900
REMARK  368  A    between atoms: _905  and  _906
REMARK  369  A    between atoms: _908  and  _910
REMARK  370  A    between atoms: _910  and  _911
REMARK  371  A    between atoms: _910  and  _913
REMARK  372  A    between atoms: _913  and  _914
REMARK  373  A    between atoms: _914  and  _915
REMARK  374  A    between atoms: _915  and  _916
REMARK  375  A    between atoms: _916  and  _917
REMARK  376  A    between atoms: _921  and  _923
REMARK  377  A    between atoms: _923  and  _924
REMARK  378  A    between atoms: _923  and  _926
REMARK  379  A    between atoms: _926  and  _927
REMARK  380  A    between atoms: _932  and  _933
REMARK  381  A    between atoms: _935  and  _937
REMARK  382  A    between atoms: _937  and  _938
REMARK  383  A    between atoms: _937  and  _940
REMARK  384  A    between atoms: _940  and  _941
REMARK  385  A    between atoms: _946  and  _947
REMARK  386  A    between atoms: _949  and  _951
REMARK  387  A    between atoms: _951  and  _952
REMARK  388  A    between atoms: _956  and  _957
REMARK  389  A    between atoms: _962  and  _964
REMARK  390  A    between atoms: _964  and  _965
REMARK  391  A    between atoms: _964  and  _967
REMARK  392  A    between atoms: _967  and  _968
REMARK  393  A    between atoms: _970  and  _972
REMARK  394  A    between atoms: _972  and  _973
REMARK  395  A    between atoms: _972  and  _975
REMARK  396  A    between atoms: _975  and  _976
REMARK  397  A    between atoms: _981  and  _983
REMARK  398  A    between atoms: _983  and  _984
REMARK  399  A    between atoms: _983  and  _986
REMARK  400  A    between atoms: _986  and  _987
REMARK  401  A    between atoms: _987  and  _988
REMARK  402  A    between atoms: _988  and  _989
REMARK  403  A    between atoms: _989  and  _990
REMARK  404  A    between atoms: _994  and  _996
REMARK  405  A    between atoms: _996  and  _997
REMARK  406  A    between atoms: _996  and  _999
REMARK  407  A    between atoms: _999  and  _1000
REMARK  408  A    between atoms: _1005  and  _1006
REMARK  409  A    between atoms: _1008  and  _1010
REMARK  410  A    between atoms: _1010  and  _1011
REMARK  411  A    between atoms: _1014  and  _1016
REMARK  412  A    between atoms: _1016  and  _1017
REMARK  413  A    between atoms: _1019  and  _1021
REMARK  414  A    between atoms: _1021  and  _1022
REMARK  415  A    between atoms: _1021  and  _1024
REMARK  416  A    between atoms: _1024  and  _1025
REMARK  417  A    between atoms: _1025  and  _1026
REMARK  418  A    between atoms: _1029  and  _1031
REMARK  419  A    between atoms: _1031  and  _1032
REMARK  420  A    between atoms: _1031  and  _1034
REMARK  421  A    between atoms: _1034  and  _1035
REMARK                            x       y       z     vdW  Elec       q    Type
REMARK                         _______ _______ _______ _____ _____    ______ ____
ROOT
ATOM      1  CG  TYR A   1      10.923  59.059  40.372  0.00  0.00    -0.020 A 
ATOM      2  CD2 TYR A   1      10.684  58.022  41.254  0.00  0.00    -0.001 A 
ATOM      3  CE2 TYR A   1      11.112  56.719  40.979  0.00  0.00    +0.036 A 
ATOM      4  CZ  TYR A   1      11.844  56.494  39.806  0.00  0.00    +0.134 A 
ATOM      5  CE1 TYR A   1      12.100  57.521  38.903  0.00  0.00    +0.036 A 
ATOM      6  CD1 TYR A   1      11.625  58.805  39.186  0.00  0.00    -0.001 A 
ENDROOT
BRANCH   4   7
ATOM      7  OH  TYR A   1      12.305  55.209  39.551  0.00  0.00    -0.506 OA
ATOM      8  HH  TYR A   1      12.035  54.610  40.291  0.00  0.00    +0.292 HD
ENDBRANCH   4   7
BRANCH   1   9
ATOM      9  CB  TYR A   1      10.470  60.471  40.666  0.00  0.00    +0.051 C 
BRANCH   9  10
ATOM     10  CA  TYR A   1       9.229  60.580  41.575  0.00  0.00    +0.137 C 
BRANCH  10  11
ATOM     11  N   TYR A   1       8.009  60.096  40.906  0.00  0.00    -0.239 NA
ATOM     12  H   TYR A   1       7.797  60.402  39.935  0.00  0.00    +0.142 HD
ENDBRANCH  10  11
BRANCH  10  13
ATOM     13  C   TYR A   1       8.922  62.008  41.952  0.00  0.00    +0.224 C 
ATOM     14  O   TYR A   1       8.958  62.931  41.126  0.00  0.00    -0.287 OA
ENDBRANCH  10  13
ENDBRANCH   9  10
ENDBRANCH   1   9
TORSDOF 5
REMARK  Name = ../refined-set-2016/2xef/2xef_pocket.pdb
REMARK  421 active torsions:
REMARK  status: ('A' for Active; 'I' for Inactive)
REMARK    1  A    between atoms: _1  and  _3
REMARK    2  A    between atoms: _3  and  _4
REMARK    3  A    between atoms: _7  and  _9
REMARK    4  A    between atoms: _9  and  _10
REMARK    5  A    between atoms: _9  and  _12
REMARK    6  A    between atoms: _12  and  _13
REMARK    7  A    between atoms: _19  and  _21
REMARK    8  A    between atoms: _21  and  _22
REMARK    9  A    between atoms: _21  and  _24
REMARK   10  A    between atoms: _24  and  _25
REMARK   11  A    between atoms: _30  and  _31
REMARK   12  A    between atoms: _33  and  _35
REMARK   13  A    between atoms: _35  and  _36
REMARK   14  A    between atoms: _38  and  _40
REMARK   15  A    between atoms: _40  and  _41
REMARK   16  A    between atoms: _40  and  _43
REMARK   17  A    between atoms: _43  and  _44
REMARK   18  A    between atoms: _44  and  _45
REMARK   19  A    between atoms: _45  and  _46
REMARK   20  A    between atoms: _46  and  _47
REMARK   21  A    between atoms: _51  and  _53
REMARK   22  A    between atoms: _53  and  _54
REMARK   23  A    between atoms: _53  and  _56
REMARK   24  A    between atoms: _59  and  _61
REMARK   25  A    between atoms: _61  and  _62
REMARK   26  A    between atoms: _61  and  _64
REMARK   27  A    between atoms: _64  and  _65
REMARK   28  A    between atoms: _71  and  _73
REMARK   29  A    between atoms: _73  and  _74
REMARK   30  A    between atoms: _73  and  _76
REMARK   31  A    between atoms: _76  and  _77
REMARK   32  A    between atoms: _77  and  _78
REMARK   33  A    between atoms: _78  and  _79
REMARK   34  A    between atoms: _88  and  _90
REMARK   35  A    between atoms: _90  and  _91
REMARK   36  A    between atoms: _93  and  _95
REMARK   37  A    between atoms: _95  and  _96
REMARK   38  A    between atoms: _95  and  _98
REMARK   39  A    between atoms: _98  and  _99
REMARK   40  A    between atoms: _99  and  _100
REMARK   41  A    between atoms: _100  and  _101
REMARK   42  A    between atoms: _101  and  _102
REMARK   43  A    between atoms: _106  and  _108
REMARK   44  A    between atoms: _108  and  _109
REMARK   45  A    between atoms: _108  and  _111
REMARK   46  A    between atoms: _111  and  _112
REMARK   47  A    between atoms: _117  and  _118
REMARK   48  A    between atoms: _120  and  _122
REMARK   49  A    between atoms: _122  and  _123
REMARK   50  A    between atoms: _122  and  _125
REMARK   51  A    between atoms: _125  and  _126
REMARK   52  A    between atoms: _126  and  _127
REMARK   53  A    between atoms: _132  and  _134
REMARK   54  A    between atoms: _134  and  _135
REMARK   55  A    between atoms: _134  and  _137
REMARK   56  A    between atoms: _137  and  _138
REMARK   57  A    between atoms: _138  and  _139
REMARK   58  A    between atoms: _139  and  _140
REMARK   59  A    between atoms: _149  and  _151
REMARK   60  A    between atoms: _151  and  _152
REMARK   61  A    between atoms: _154  and  _156
REMARK   62  A    between atoms: _156  and  _157
REMARK   63  A    between atoms: _156  and  _159
REMARK   64  A    between atoms: _159  and  _160
REMARK   65  A    between atoms: _165  and  _167
REMARK   66  A    between atoms: _167  and  _168
REMARK   67  A    between atoms: _167  and  _170
REMARK   68  A    between atoms: _170  and  _171
REMARK   69  A    between atoms: _174  and  _176
REMARK   70  A    between atoms: _176  and  _177
REMARK   71  A    between atoms: _176  and  _179
REMARK   72  A    between atoms: _179  and  _180
REMARK   73  A    between atoms: _183  and  _185
REMARK   74  A    between atoms: _185  and  _186
REMARK   75  A    between atoms: _185  and  _188
REMARK   76  A    between atoms: _188  and  _189
REMARK   77  A    between atoms: _194  and  _196
REMARK   78  A    between atoms: _196  and  _197
REMARK   79  A    between atoms: _196  and  _199
REMARK   80  A    between atoms: _199  and  _200
REMARK   81  A    between atoms: _203  and  _205
REMARK   82  A    between atoms: _205  and  _206
REMARK   83  A    between atoms: _205  and  _208
REMARK   84  A    between atoms: _208  and  _209
REMARK   85  A    between atoms: _214  and  _216
REMARK   86  A    between atoms: _216  and  _217
REMARK   87  A    between atoms: _219  and  _221
REMARK   88  A    between atoms: _221  and  _222
REMARK   89  A    between atoms: _224  and  _226
REMARK   90  A    between atoms: _226  and  _227
REMARK   91  A    between atoms: _226  and  _229
REMARK   92  A    between atoms: _229  and  _230
REMARK   93  A    between atoms: _234  and  ZN_1038
REMARK   94  A    between atoms: _235  and  _237
REMARK   95  A    between atoms: _237  and  _238
REMARK   96  A    between atoms: _237  and  _240
REMARK   97  A    between atoms: _240  and  _241
REMARK   98  A    between atoms: _244  and  _246
REMARK   99  A    between atoms: _246  and  _247
REMARK  100  A    between atoms: _246  and  _249
REMARK  101  A    between atoms: _249  and  _250
REMARK  102  A    between atoms: _260  and  _262
REMARK  103  A    between atoms: _262  and  _263
REMARK  104  A    between atoms: _262  and  _265
REMARK  105  A    between atoms: _265  and  _266
REMARK  106  A    between atoms: _269  and  _271
REMARK  107  A    between atoms: _271  and  _272
REMARK  108  A    between atoms: _271  and  _274
REMARK  109  A    between atoms: _274  and  _275
REMARK  110  A    between atoms: _279  and  _280
REMARK  111  A    between atoms: _285  and  _287
REMARK  112  A    between atoms: _287  and  _288
REMARK  113  A    between atoms: _291  and  _293
REMARK  114  A    between atoms: _293  and  _294
REMARK  115  A    between atoms: _293  and  _296
REMARK  116  A    between atoms: _296  and  _297
REMARK  117  A    between atoms: _297  and  _298
REMARK  118  A    between atoms: _301  and  _303
REMARK  119  A    between atoms: _303  and  _304
REMARK  120  A    between atoms: _303  and  _306
REMARK  121  A    between atoms: _306  and  _307
REMARK  122  A    between atoms: _307  and  _308
REMARK  123  A    between atoms: _308  and  _310
REMARK  124  A    between atoms: _310  and  ZN_1037
REMARK  125  A    between atoms: _311  and  _313
REMARK  126  A    between atoms: _313  and  _314
REMARK  127  A    between atoms: _313  and  _316
REMARK  128  A    between atoms: _316  and  _317
REMARK  129  A    between atoms: _323  and  _325
REMARK  130  A    between atoms: _325  and  _326
REMARK  131  A    between atoms: _328  and  _330
REMARK  132  A    between atoms: _330  and  _331
REMARK  133  A    between atoms: _330  and  _333
REMARK  134  A    between atoms: _333  and  _334
REMARK  135  A    between atoms: _337  and  _339
REMARK  136  A    between atoms: _339  and  _340
REMARK  137  A    between atoms: _339  and  _342
REMARK  138  A    between atoms: _342  and  _343
REMARK  139  A    between atoms: _346  and  _348
REMARK  140  A    between atoms: _348  and  _349
REMARK  141  A    between atoms: _348  and  _351
REMARK  142  A    between atoms: _351  and  _352
REMARK  143  A    between atoms: _357  and  _359
REMARK  144  A    between atoms: _359  and  _360
REMARK  145  A    between atoms: _359  and  _362
REMARK  146  A    between atoms: _362  and  _363
REMARK  147  A    between atoms: _363  and  _365
REMARK  148  A    between atoms: _365  and  ZN_1038
REMARK  149  A    between atoms: _366  and  _368
REMARK  150  A    between atoms: _368  and  _369
REMARK  151  A    between atoms: _368  and  _371
REMARK  152  A    between atoms: _371  and  _372
REMARK  153  A    between atoms: _374  and  _376
REMARK  154  A    between atoms: _376  and  _377
REMARK  155  A    between atoms: _376  and  _379
REMARK  156  A    between atoms: _379  and  _380
REMARK  157  A    between atoms: _382  and  _384
REMARK  158  A    between atoms: _384  and  _385
REMARK  159  A    between atoms: _384  and  _387
REMARK  160  A    between atoms: _387  and  _388
REMARK  161  A    between atoms: _391  and  _393
REMARK  162  A    between atoms: _393  and  _394
REMARK  163  A    between atoms: _393  and  _396
REMARK  164  A    between atoms: _396  and  _397
REMARK  165  A    between atoms: _397  and  _398
REMARK  166  A    between atoms: _401  and  _403
REMARK  167  A    between atoms: _403  and  _404
REMARK  168  A    between atoms: _403  and  _406
REMARK  169  A    between atoms: _406  and  _407
REMARK  170  A    between atoms: _412  and  _413
REMARK  171  A    between atoms: _415  and  _417
REMARK  172  A    between atoms: _417  and  _418
REMARK  173  A    between atoms: _417  and  _420
REMARK  174  A    between atoms: _420  and  _421
REMARK  175  A    between atoms: _424  and  _426
REMARK  176  A    between atoms: _426  and  _427
REMARK  177  A    between atoms: _426  and  _429
REMARK  178  A    between atoms: _429  and  _430
REMARK  179  A    between atoms: _433  and  _435
REMARK  180  A    between atoms: _435  and  _436
REMARK  181  A    between atoms: _435  and  _438
REMARK  182  A    between atoms: _438  and  _439
REMARK  183  A    between atoms: _439  and  _440
REMARK  184  A    between atoms: _440  and  _441
REMARK  185  A    between atoms: _450  and  _452
REMARK  186  A    between atoms: _452  and  _453
REMARK  187  A    between atoms: _452  and  _455
REMARK  188  A    between atoms: _458  and  _460
REMARK  189  A    between atoms: _460  and  _461
REMARK  190  A    between atoms: _460  and  _463
REMARK  191  A    between atoms: _463  and  _464
REMARK  192  A    between atoms: _467  and  _469
REMARK  193  A    between atoms: _469  and  _470
REMARK  194  A    between atoms: _469  and  _472
REMARK  195  A    between atoms: _474  and  _476
REMARK  196  A    between atoms: _476  and  _477
REMARK  197  A    between atoms: _476  and  _479
REMARK  198  A    between atoms: _479  and  _480
REMARK  199  A    between atoms: _490  and  _492
REMARK  200  A    between atoms: _492  and  _493
REMARK  201  A    between atoms: _492  and  _495
REMARK  202  A    between atoms: _495  and  _496
REMARK  203  A    between atoms: _496  and  _497
REMARK  204  A    between atoms: _497  and  _498
REMARK  205  A    between atoms: _498  and  _499
REMARK  206  A    between atoms: _503  and  _505
REMARK  207  A    between atoms: _505  and  _506
REMARK  208  A    between atoms: _505  and  _508
REMARK  209  A    between atoms: _508  and  _509
REMARK  210  A    between atoms: _512  and  _513
REMARK  211  A    between atoms: _519  and  _520
REMARK  212  A    between atoms: _525  and  _527
REMARK  213  A    between atoms: _527  and  _528
REMARK  214  A    between atoms: _527  and  _530
REMARK  215  A    between atoms: _530  and  _531
REMARK  216  A    between atoms: _531  and  _532
REMARK  217  A    between atoms: _535  and  _537
REMARK  218  A    between atoms: _537  and  _538
REMARK  219  A    between atoms: _537  and  _540
REMARK  220  A    between atoms: _540  and  _541
REMARK  221  A    between atoms: _541  and  _542
REMARK  222  A    between atoms: _542  and  _543
REMARK  223  A    between atoms: _552  and  _554
REMARK  224  A    between atoms: _554  and  _555
REMARK  225  A    between atoms: _554  and  _557
REMARK  226  A    between atoms: _557  and  _558
REMARK  227  A    between atoms: _561  and  _563
REMARK  228  A    between atoms: _563  and  _564
REMARK  229  A    between atoms: _563  and  _566
REMARK  230  A    between atoms: _566  and  _567
REMARK  231  A    between atoms: _569  and  _571
REMARK  232  A    between atoms: _571  and  _572
REMARK  233  A    between atoms: _571  and  _574
REMARK  234  A    between atoms: _574  and  _575
REMARK  235  A    between atoms: _575  and  _576
REMARK  236  A    between atoms: _576  and  _577
REMARK  237  A    between atoms: _577  and  _578
REMARK  238  A    between atoms: _582  and  _584
REMARK  239  A    between atoms: _584  and  _585
REMARK  240  A    between atoms: _584  and  _587
REMARK  241  A    between atoms: _587  and  _588
REMARK  242  A    between atoms: _591  and  _593
REMARK  243  A    between atoms: _593  and  _594
REMARK  244  A    between atoms: _596  and  _598
REMARK  245  A    between atoms: _598  and  _599
REMARK  246  A    between atoms: _598  and  _601
REMARK  247  A    between atoms: _601  and  _602
REMARK  248  A    between atoms: _604  and  _606
REMARK  249  A    between atoms: _606  and  _607
REMARK  250  A    between atoms: _609  and  _611
REMARK  251  A    between atoms: _611  and  _612
REMARK  252  A    between atoms: _611  and  _614
REMARK  253  A    between atoms: _614  and  _615
REMARK  254  A    between atoms: _620  and  _622
REMARK  255  A    between atoms: _622  and  _623
REMARK  256  A    between atoms: _622  and  _625
REMARK  257  A    between atoms: _625  and  _626
REMARK  258  A    between atoms: _629  and  _631
REMARK  259  A    between atoms: _631  and  _632
REMARK  260  A    between atoms: _631  and  _634
REMARK  261  A    between atoms: _634  and  _635
REMARK  262  A    between atoms: _641  and  _643
REMARK  263  A    between atoms: _643  and  _644
REMARK  264  A    between atoms: _643  and  _646
REMARK  265  A    between atoms: _646  and  _647
REMARK  266  A    between atoms: _647  and  _648
REMARK  267  A    between atoms: _651  and  _653
REMARK  268  A    between atoms: _653  and  _654
REMARK  269  A    between atoms: _653  and  _656
REMARK  270  A    between atoms: _656  and  _657
REMARK  271  A    between atoms: _657  and  _658
REMARK  272  A    between atoms: _663  and  _665
REMARK  273  A    between atoms: _665  and  _666
REMARK  274  A    between atoms: _665  and  _668
REMARK  275  A    between atoms: _668  and  _669
REMARK  276  A    between atoms: _669  and  _670
REMARK  277  A    between atoms: _670  and  _671
REMARK  278  A    between atoms: _680  and  _682
REMARK  279  A    between atoms: _682  and  _683
REMARK  280  A    between atoms: _682  and  _685
REMARK  281  A    between atoms: _685  and  _686
REMARK  282  A    between atoms: _686  and  _687
REMARK  283  A    between atoms: _687  and  _688
REMARK  284  A    between atoms: _697  and  _699
REMARK  285  A    between atoms: _699  and  _700
REMARK  286  A    between atoms: _699  and  _702
REMARK  287  A    between atoms: _702  and  _703
REMARK  288  A    between atoms: _708  and  _709
REMARK  289  A    between atoms: _711  and  _713
REMARK  290  A    between atoms: _713  and  _714
REMARK  291  A    between atoms: _713  and  _716
REMARK  292  A    between atoms: _716  and  _717
REMARK  293  A    between atoms: _720  and  _722
REMARK  294  A    between atoms: _722  and  _723
REMARK  295  A    between atoms: _722  and  _725
REMARK  296  A    between atoms: _725  and  _726
REMARK  297  A    between atoms: _726  and  _727
REMARK  298  A    between atoms: _727  and  _728
REMARK  299  A    between atoms: _728  and  _729
REMARK  300  A    between atoms: _733  and  _735
REMARK  301  A    between atoms: _735  and  _736
REMARK  302  A    between atoms: _735  and  _738
REMARK  303  A    between atoms: _738  and  _739
REMARK  304  A    between atoms: _744  and  _746
REMARK  305  A    between atoms: _746  and  _747
REMARK  306  A    between atoms: _746  and  _749
REMARK  307  A    between atoms: _749  and  _750
REMARK  308  A    between atoms: _760  and  _762
REMARK  309  A    between atoms: _762  and  _763
REMARK  310  A    between atoms: _762  and  _765
REMARK  311  A    between atoms: _765  and  _766
REMARK  312  A    between atoms: _766  and  _767
REMARK  313  A    between atoms: _770  and  _772
REMARK  314  A    between atoms: _772  and  _773
REMARK  315  A    between atoms: _772  and  _775
REMARK  316  A    between atoms: _775  and  _776
REMARK  317  A    between atoms: _779  and  _781
REMARK  318  A    between atoms: _781  and  _782
REMARK  319  A    between atoms: _781  and  _784
REMARK  320  A    between atoms: _784  and  _785
REMARK  321  A    between atoms: _790  and  _792
REMARK  322  A    between atoms: _792  and  _793
REMARK  323  A    between atoms: _792  and  _795
REMARK  324  A    between atoms: _795  and  _796
REMARK  325  A    between atoms: _802  and  _804
REMARK  326  A    between atoms: _804  and  _805
REMARK  327  A    between atoms: _804  and  _807
REMARK  328  A    between atoms: _807  and  _808
REMARK  329  A    between atoms: _810  and  _812
REMARK  330  A    between atoms: _812  and  _813
REMARK  331  A    between atoms: _815  and  _817
REMARK  332  A    between atoms: _817  and  _818
REMARK  333  A    between atoms: _817  and  _820
REMARK  334  A    between atoms: _820  and  _821
REMARK  335  A    between atoms: _826  and  _827
REMARK  336  A    between atoms: _829  and  _831
REMARK  337  A    between atoms: _831  and  _832
REMARK  338  A    between atoms: _831  and  _834
REMARK  339  A    between atoms: _834  and  _835
REMARK  340  A    between atoms: _840  and  _841
REMARK  341  A    between atoms: _843  and  _845
REMARK  342  A    between atoms: _845  and  _846
REMARK  343  A    between atoms: _845  and  _848
REMARK  344  A    between atoms: _848  and  _849
REMARK  345  A    between atoms: _853  and  ZN_1037
REMARK  346  A    between atoms: _854  and  _856
REMARK  347  A    between atoms: _856  and  _857
REMARK  348  A    between atoms: _856  and  _859
REMARK  349  A    between atoms: _859  and  _860
REMARK  350  A    between atoms: _860  and  _861
REMARK  351  A    between atoms: _864  and  _866
REMARK  352  A    between atoms: _866  and  _867
REMARK  353  A    between atoms: _866  and  _869
REMARK  354  A    between atoms: _869  and  _870
REMARK  355  A    between atoms: _870  and  _871
REMARK  356  A    between atoms: _871  and  _872
REMARK  357  A    between atoms: _881  and  _883
REMARK  358  A    between atoms: _883  and  _884
REMARK  359  A    between atoms: _883  and  _886
REMARK  360  A    between atoms: _886  and  _887
REMARK  361  A    between atoms: _887  and  _888
REMARK  362  A    between atoms: _888  and  _889
REMARK  363  A    between atoms: _889  and  _890
REMARK  364  A    between atoms: _894  and  _896
REMARK  365  A    between atoms: _896  and  _897
REMARK  366  A    between atoms: _896  and  _899
REMARK  367  A    between atoms: _899  and  _900
REMARK  368  A    between atoms: _905  and  _906
REMARK  369  A    between atoms: _908  and  _910
REMARK  370  A    between atoms: _910  and  _911
REMARK  371  A    between atoms: _910  and  _913
REMARK  372  A    between atoms: _913  and  _914
REMARK  373  A    between atoms: _914  and  _915
REMARK  374  A    between atoms: _915  and  _916
REMARK  375  A    between atoms: _916  and  _917
REMARK  376  A    between atoms: _921  and  _923
REMARK  377  A    between atoms: _923  and  _924
REMARK  378  A    between atoms: _923  and  _926
REMARK  379  A    between atoms: _926  and  _927
REMARK  380  A    between atoms: _932  and  _933
REMARK  381  A    between atoms: _935  and  _937
REMARK  382  A    between atoms: _937  and  _938
REMARK  383  A    between atoms: _937  and  _940
REMARK  384  A    between atoms: _940  and  _941
REMARK  385  A    between atoms: _946  and  _947
REMARK  386  A    between atoms: _949  and  _951
REMARK  387  A    between atoms: _951  and  _952
REMARK  388  A    between atoms: _956  and  _957
REMARK  389  A    between atoms: _962  and  _964
REMARK  390  A    between atoms: _964  and  _965
REMARK  391  A    between atoms: _964  and  _967
REMARK  392  A    between atoms: _967  and  _968
REMARK  393  A    between atoms: _970  and  _972
REMARK  394  A    between atoms: _972  and  _973
REMARK  395  A    between atoms: _972  and  _975
REMARK  396  A    between atoms: _975  and  _976
REMARK  397  A    between atoms: _981  and  _983
REMARK  398  A    between atoms: _983  and  _984
REMARK  399  A    between atoms: _983  and  _986
REMARK  400  A    between atoms: _986  and  _987
REMARK  401  A    between atoms: _987  and  _988
REMARK  402  A    between atoms: _988  and  _989
REMARK  403  A    between atoms: _989  and  _990
REMARK  404  A    between atoms: _994  and  _996
REMARK  405  A    between atoms: _996  and  _997
REMARK  406  A    between atoms: _996  and  _999
REMARK  407  A    between atoms: _999  and  _1000
REMARK  408  A    between atoms: _1005  and  _1006
REMARK  409  A    between atoms: _1008  and  _1010
REMARK  410  A    between atoms: _1010  and  _1011
REMARK  411  A    between atoms: _1014  and  _1016
REMARK  412  A    between atoms: _1016  and  _1017
REMARK  413  A    between atoms: _1019  and  _1021
REMARK  414  A    between atoms: _1021  and  _1022
REMARK  415  A    between atoms: _1021  and  _1024
REMARK  416  A    between atoms: _1024  and  _1025
REMARK  417  A    between atoms: _1025  and  _1026
REMARK  418  A    between atoms: _1029  and  _1031
REMARK  419  A    between atoms: _1031  and  _1032
REMARK  420  A    between atoms: _1031  and  _1034
REMARK  421  A    between atoms: _1034  and  _1035
REMARK                            x       y       z     vdW  Elec       q    Type
REMARK                         _______ _______ _______ _____ _____    ______ ____
ROOT
ATOM      1  CA  ALA A   2      15.452  60.952  42.441  0.00  0.00    +0.149 C 
ATOM      2  CB  ALA A   2      14.760  61.613  41.248  0.00  0.00    +0.031 C 
ENDROOT
BRANCH   1   3
ATOM      3  C   ALA A   2      16.464  59.946  41.907  0.00  0.00    +0.244 C 
ATOM      4  O   ALA A   2      17.663  60.199  41.870  0.00  0.00    -0.273 OA
ATOM      5  N   PRO A   3      15.981  58.783  41.466  0.00  0.00    -0.272 N 
ATOM      6  CD  PRO A   3      14.615  58.263  41.552  0.00  0.00    +0.094 C 
ATOM      7  CG  PRO A   3      14.860  56.800  41.452  0.00  0.00    +0.024 C 
ATOM      8  CB  PRO A   3      15.941  56.691  40.435  0.00  0.00    +0.031 C 
ATOM      9  CA  PRO A   3      16.876  57.859  40.786  0.00  0.00    +0.152 C 
BRANCH   9  10
ATOM     10  C   PRO A   3      17.382  58.539  39.514  0.00  0.00    +0.241 C 
ATOM     11  N   SER A   4      18.648  58.334  39.180  0.00  0.00    -0.296 N 
ATOM     12  H   SER A   4      19.256  57.759  39.798  0.00  0.00    +0.150 HD
ATOM     13  O   PRO A   3      16.618  59.233  38.837  0.00  0.00    -0.273 OA
BRANCH  11  14
ATOM     14  CA  SER A   4      19.196  58.904  37.959  0.00  0.00    +0.166 C 
BRANCH  14  15
ATOM     15  C   SER A   4      18.391  58.464  36.741  0.00  0.00    +0.229 C 
ATOM     16  O   SER A   4      18.094  57.283  36.589  0.00  0.00    -0.286 OA
ENDBRANCH  14  15
BRANCH  14  17
ATOM     17  CB  SER A   4      20.670  58.433  37.777  0.00  0.00    +0.165 C 
BRANCH  17  18
ATOM     18  OG  SER A   4      21.092  58.910  36.501  0.00  0.00    -0.380 OA
ATOM     19  H   SER A   4      22.029  58.633  36.340  0.00  0.00    +0.211 HD
ENDBRANCH  17  18
ENDBRANCH  14  17
ENDBRANCH  11  14
ENDBRANCH   9  10
ENDBRANCH   1   3
BRANCH   1  22
ATOM     20  C   TYR A   1      15.644  62.399  44.375  0.00  0.00    +0.239 C 
ATOM     21  O   TYR A   1      14.475  62.197  44.695  0.00  0.00    -0.274 OA
ATOM     22  N   ALA A   2      16.167  61.945  43.231  0.00  0.00    -0.297 N 
ATOM     23  H   ALA A   2      17.087  62.302  42.904  0.00  0.00    +0.150 HD
BRANCH  20  24
ATOM     24  CA  TYR A   1      16.563  63.112  45.337  0.00  0.00    +0.149 C 
BRANCH  24  25
ATOM     25  N   TYR A   1      15.996  64.396  45.743  0.00  0.00    -0.238 NA
ATOM     26  H   TYR A   1      15.023  64.432  46.108  0.00  0.00    +0.142 HD
ENDBRANCH  24  25
BRANCH  24  27
ATOM     27  CB  TYR A   1      16.688  62.218  46.593  0.00  0.00    +0.053 C 
BRANCH  27  28
ATOM     28  CG  TYR A   1      17.748  62.663  47.564  0.00  0.00    -0.020 A 
ATOM     29  CD2 TYR A   1      17.425  62.925  48.915  0.00  0.00    -0.001 A 
ATOM     30  CE2 TYR A   1      18.389  63.314  49.807  0.00  0.00    +0.036 A 
ATOM     31  CZ  TYR A   1      19.716  63.308  49.401  0.00  0.00    +0.134 A 
ATOM     32  CE1 TYR A   1      20.096  63.057  48.095  0.00  0.00    +0.036 A 
ATOM     33  CD1 TYR A   1      19.109  62.691  47.186  0.00  0.00    -0.001 A 
BRANCH  31  34
ATOM     34  OH  TYR A   1      20.715  63.628  50.311  0.00  0.00    -0.506 OA
ATOM     35  HH  TYR A   1      21.596  63.576  49.863  0.00  0.00    +0.292 HD
ENDBRANCH  31  34
ENDBRANCH  27  28
ENDBRANCH  24  27
ENDBRANCH  20  24
ENDBRANCH   1  22
TORSDOF 12
REMARK  Name = ../refined-set-2016/2xef/2xef_pocket.pdb
REMARK  421 active torsions:
REMARK  status: ('A' for Active; 'I' for Inactive)
REMARK    1  A    between atoms: _1  and  _3
REMARK    2  A    between atoms: _3  and  _4
REMARK    3  A    between atoms: _7  and  _9
REMARK    4  A    between atoms: _9  and  _10
REMARK    5  A    between atoms: _9  and  _12
REMARK    6  A    between atoms: _12  and  _13
REMARK    7  A    between atoms: _19  and  _21
REMARK    8  A    between atoms: _21  and  _22
REMARK    9  A    between atoms: _21  and  _24
REMARK   10  A    between atoms: _24  and  _25
REMARK   11  A    between atoms: _30  and  _31
REMARK   12  A    between atoms: _33  and  _35
REMARK   13  A    between atoms: _35  and  _36
REMARK   14  A    between atoms: _38  and  _40
REMARK   15  A    between atoms: _40  and  _41
REMARK   16  A    between atoms: _40  and  _43
REMARK   17  A    between atoms: _43  and  _44
REMARK   18  A    between atoms: _44  and  _45
REMARK   19  A    between atoms: _45  and  _46
REMARK   20  A    between atoms: _46  and  _47
REMARK   21  A    between atoms: _51  and  _53
REMARK   22  A    between atoms: _53  and  _54
REMARK   23  A    between atoms: _53  and  _56
REMARK   24  A    between atoms: _59  and  _61
REMARK   25  A    between atoms: _61  and  _62
REMARK   26  A    between atoms: _61  and  _64
REMARK   27  A    between atoms: _64  and  _65
REMARK   28  A    between atoms: _71  and  _73
REMARK   29  A    between atoms: _73  and  _74
REMARK   30  A    between atoms: _73  and  _76
REMARK   31  A    between atoms: _76  and  _77
REMARK   32  A    between atoms: _77  and  _78
REMARK   33  A    between atoms: _78  and  _79
REMARK   34  A    between atoms: _88  and  _90
REMARK   35  A    between atoms: _90  and  _91
REMARK   36  A    between atoms: _93  and  _95
REMARK   37  A    between atoms: _95  and  _96
REMARK   38  A    between atoms: _95  and  _98
REMARK   39  A    between atoms: _98  and  _99
REMARK   40  A    between atoms: _99  and  _100
REMARK   41  A    between atoms: _100  and  _101
REMARK   42  A    between atoms: _101  and  _102
REMARK   43  A    between atoms: _106  and  _108
REMARK   44  A    between atoms: _108  and  _109
REMARK   45  A    between atoms: _108  and  _111
REMARK   46  A    between atoms: _111  and  _112
REMARK   47  A    between atoms: _117  and  _118
REMARK   48  A    between atoms: _120  and  _122
REMARK   49  A    between atoms: _122  and  _123
REMARK   50  A    between atoms: _122  and  _125
REMARK   51  A    between atoms: _125  and  _126
REMARK   52  A    between atoms: _126  and  _127
REMARK   53  A    between atoms: _132  and  _134
REMARK   54  A    between atoms: _134  and  _135
REMARK   55  A    between atoms: _134  and  _137
REMARK   56  A    between atoms: _137  and  _138
REMARK   57  A    between atoms: _138  and  _139
REMARK   58  A    between atoms: _139  and  _140
REMARK   59  A    between atoms: _149  and  _151
REMARK   60  A    between atoms: _151  and  _152
REMARK   61  A    between atoms: _154  and  _156
REMARK   62  A    between atoms: _156  and  _157
REMARK   63  A    between atoms: _156  and  _159
REMARK   64  A    between atoms: _159  and  _160
REMARK   65  A    between atoms: _165  and  _167
REMARK   66  A    between atoms: _167  and  _168
REMARK   67  A    between atoms: _167  and  _170
REMARK   68  A    between atoms: _170  and  _171
REMARK   69  A    between atoms: _174  and  _176
REMARK   70  A    between atoms: _176  and  _177
REMARK   71  A    between atoms: _176  and  _179
REMARK   72  A    between atoms: _179  and  _180
REMARK   73  A    between atoms: _183  and  _185
REMARK   74  A    between atoms: _185  and  _186
REMARK   75  A    between atoms: _185  and  _188
REMARK   76  A    between atoms: _188  and  _189
REMARK   77  A    between atoms: _194  and  _196
REMARK   78  A    between atoms: _196  and  _197
REMARK   79  A    between atoms: _196  and  _199
REMARK   80  A    between atoms: _199  and  _200
REMARK   81  A    between atoms: _203  and  _205
REMARK   82  A    between atoms: _205  and  _206
REMARK   83  A    between atoms: _205  and  _208
REMARK   84  A    between atoms: _208  and  _209
REMARK   85  A    between atoms: _214  and  _216
REMARK   86  A    between atoms: _216  and  _217
REMARK   87  A    between atoms: _219  and  _221
REMARK   88  A    between atoms: _221  and  _222
REMARK   89  A    between atoms: _224  and  _226
REMARK   90  A    between atoms: _226  and  _227
REMARK   91  A    between atoms: _226  and  _229
REMARK   92  A    between atoms: _229  and  _230
REMARK   93  A    between atoms: _234  and  ZN_1038
REMARK   94  A    between atoms: _235  and  _237
REMARK   95  A    between atoms: _237  and  _238
REMARK   96  A    between atoms: _237  and  _240
REMARK   97  A    between atoms: _240  and  _241
REMARK   98  A    between atoms: _244  and  _246
REMARK   99  A    between atoms: _246  and  _247
REMARK  100  A    between atoms: _246  and  _249
REMARK  101  A    between atoms: _249  and  _250
REMARK  102  A    between atoms: _260  and  _262
REMARK  103  A    between atoms: _262  and  _263
REMARK  104  A    between atoms: _262  and  _265
REMARK  105  A    between atoms: _265  and  _266
REMARK  106  A    between atoms: _269  and  _271
REMARK  107  A    between atoms: _271  and  _272
REMARK  108  A    between atoms: _271  and  _274
REMARK  109  A    between atoms: _274  and  _275
REMARK  110  A    between atoms: _279  and  _280
REMARK  111  A    between atoms: _285  and  _287
REMARK  112  A    between atoms: _287  and  _288
REMARK  113  A    between atoms: _291  and  _293
REMARK  114  A    between atoms: _293  and  _294
REMARK  115  A    between atoms: _293  and  _296
REMARK  116  A    between atoms: _296  and  _297
REMARK  117  A    between atoms: _297  and  _298
REMARK  118  A    between atoms: _301  and  _303
REMARK  119  A    between atoms: _303  and  _304
REMARK  120  A    between atoms: _303  and  _306
REMARK  121  A    between atoms: _306  and  _307
REMARK  122  A    between atoms: _307  and  _308
REMARK  123  A    between atoms: _308  and  _310
REMARK  124  A    between atoms: _310  and  ZN_1037
REMARK  125  A    between atoms: _311  and  _313
REMARK  126  A    between atoms: _313  and  _314
REMARK  127  A    between atoms: _313  and  _316
REMARK  128  A    between atoms: _316  and  _317
REMARK  129  A    between atoms: _323  and  _325
REMARK  130  A    between atoms: _325  and  _326
REMARK  131  A    between atoms: _328  and  _330
REMARK  132  A    between atoms: _330  and  _331
REMARK  133  A    between atoms: _330  and  _333
REMARK  134  A    between atoms: _333  and  _334
REMARK  135  A    between atoms: _337  and  _339
REMARK  136  A    between atoms: _339  and  _340
REMARK  137  A    between atoms: _339  and  _342
REMARK  138  A    between atoms: _342  and  _343
REMARK  139  A    between atoms: _346  and  _348
REMARK  140  A    between atoms: _348  and  _349
REMARK  141  A    between atoms: _348  and  _351
REMARK  142  A    between atoms: _351  and  _352
REMARK  143  A    between atoms: _357  and  _359
REMARK  144  A    between atoms: _359  and  _360
REMARK  145  A    between atoms: _359  and  _362
REMARK  146  A    between atoms: _362  and  _363
REMARK  147  A    between atoms: _363  and  _365
REMARK  148  A    between atoms: _365  and  ZN_1038
REMARK  149  A    between atoms: _366  and  _368
REMARK  150  A    between atoms: _368  and  _369
REMARK  151  A    between atoms: _368  and  _371
REMARK  152  A    between atoms: _371  and  _372
REMARK  153  A    between atoms: _374  and  _376
REMARK  154  A    between atoms: _376  and  _377
REMARK  155  A    between atoms: _376  and  _379
REMARK  156  A    between atoms: _379  and  _380
REMARK  157  A    between atoms: _382  and  _384
REMARK  158  A    between atoms: _384  and  _385
REMARK  159  A    between atoms: _384  and  _387
REMARK  160  A    between atoms: _387  and  _388
REMARK  161  A    between atoms: _391  and  _393
REMARK  162  A    between atoms: _393  and  _394
REMARK  163  A    between atoms: _393  and  _396
REMARK  164  A    between atoms: _396  and  _397
REMARK  165  A    between atoms: _397  and  _398
REMARK  166  A    between atoms: _401  and  _403
REMARK  167  A    between atoms: _403  and  _404
REMARK  168  A    between atoms: _403  and  _406
REMARK  169  A    between atoms: _406  and  _407
REMARK  170  A    between atoms: _412  and  _413
REMARK  171  A    between atoms: _415  and  _417
REMARK  172  A    between atoms: _417  and  _418
REMARK  173  A    between atoms: _417  and  _420
REMARK  174  A    between atoms: _420  and  _421
REMARK  175  A    between atoms: _424  and  _426
REMARK  176  A    between atoms: _426  and  _427
REMARK  177  A    between atoms: _426  and  _429
REMARK  178  A    between atoms: _429  and  _430
REMARK  179  A    between atoms: _433  and  _435
REMARK  180  A    between atoms: _435  and  _436
REMARK  181  A    between atoms: _435  and  _438
REMARK  182  A    between atoms: _438  and  _439
REMARK  183  A    between atoms: _439  and  _440
REMARK  184  A    between atoms: _440  and  _441
REMARK  185  A    between atoms: _450  and  _452
REMARK  186  A    between atoms: _452  and  _453
REMARK  187  A    between atoms: _452  and  _455
REMARK  188  A    between atoms: _458  and  _460
REMARK  189  A    between atoms: _460  and  _461
REMARK  190  A    between atoms: _460  and  _463
REMARK  191  A    between atoms: _463  and  _464
REMARK  192  A    between atoms: _467  and  _469
REMARK  193  A    between atoms: _469  and  _470
REMARK  194  A    between atoms: _469  and  _472
REMARK  195  A    between atoms: _474  and  _476
REMARK  196  A    between atoms: _476  and  _477
REMARK  197  A    between atoms: _476  and  _479
REMARK  198  A    between atoms: _479  and  _480
REMARK  199  A    between atoms: _490  and  _492
REMARK  200  A    between atoms: _492  and  _493
REMARK  201  A    between atoms: _492  and  _495
REMARK  202  A    between atoms: _495  and  _496
REMARK  203  A    between atoms: _496  and  _497
REMARK  204  A    between atoms: _497  and  _498
REMARK  205  A    between atoms: _498  and  _499
REMARK  206  A    between atoms: _503  and  _505
REMARK  207  A    between atoms: _505  and  _506
REMARK  208  A    between atoms: _505  and  _508
REMARK  209  A    between atoms: _508  and  _509
REMARK  210  A    between atoms: _512  and  _513
REMARK  211  A    between atoms: _519  and  _520
REMARK  212  A    between atoms: _525  and  _527
REMARK  213  A    between atoms: _527  and  _528
REMARK  214  A    between atoms: _527  and  _530
REMARK  215  A    between atoms: _530  and  _531
REMARK  216  A    between atoms: _531  and  _532
REMARK  217  A    between atoms: _535  and  _537
REMARK  218  A    between atoms: _537  and  _538
REMARK  219  A    between atoms: _537  and  _540
REMARK  220  A    between atoms: _540  and  _541
REMARK  221  A    between atoms: _541  and  _542
REMARK  222  A    between atoms: _542  and  _543
REMARK  223  A    between atoms: _552  and  _554
REMARK  224  A    between atoms: _554  and  _555
REMARK  225  A    between atoms: _554  and  _557
REMARK  226  A    between atoms: _557  and  _558
REMARK  227  A    between atoms: _561  and  _563
REMARK  228  A    between atoms: _563  and  _564
REMARK  229  A    between atoms: _563  and  _566
REMARK  230  A    between atoms: _566  and  _567
REMARK  231  A    between atoms: _569  and  _571
REMARK  232  A    between atoms: _571  and  _572
REMARK  233  A    between atoms: _571  and  _574
REMARK  234  A    between atoms: _574  and  _575
REMARK  235  A    between atoms: _575  and  _576
REMARK  236  A    between atoms: _576  and  _577
REMARK  237  A    between atoms: _577  and  _578
REMARK  238  A    between atoms: _582  and  _584
REMARK  239  A    between atoms: _584  and  _585
REMARK  240  A    between atoms: _584  and  _587
REMARK  241  A    between atoms: _587  and  _588
REMARK  242  A    between atoms: _591  and  _593
REMARK  243  A    between atoms: _593  and  _594
REMARK  244  A    between atoms: _596  and  _598
REMARK  245  A    between atoms: _598  and  _599
REMARK  246  A    between atoms: _598  and  _601
REMARK  247  A    between atoms: _601  and  _602
REMARK  248  A    between atoms: _604  and  _606
REMARK  249  A    between atoms: _606  and  _607
REMARK  250  A    between atoms: _609  and  _611
REMARK  251  A    between atoms: _611  and  _612
REMARK  252  A    between atoms: _611  and  _614
REMARK  253  A    between atoms: _614  and  _615
REMARK  254  A    between atoms: _620  and  _622
REMARK  255  A    between atoms: _622  and  _623
REMARK  256  A    between atoms: _622  and  _625
REMARK  257  A    between atoms: _625  and  _626
REMARK  258  A    between atoms: _629  and  _631
REMARK  259  A    between atoms: _631  and  _632
REMARK  260  A    between atoms: _631  and  _634
REMARK  261  A    between atoms: _634  and  _635
REMARK  262  A    between atoms: _641  and  _643
REMARK  263  A    between atoms: _643  and  _644
REMARK  264  A    between atoms: _643  and  _646
REMARK  265  A    between atoms: _646  and  _647
REMARK  266  A    between atoms: _647  and  _648
REMARK  267  A    between atoms: _651  and  _653
REMARK  268  A    between atoms: _653  and  _654
REMARK  269  A    between atoms: _653  and  _656
REMARK  270  A    between atoms: _656  and  _657
REMARK  271  A    between atoms: _657  and  _658
REMARK  272  A    between atoms: _663  and  _665
REMARK  273  A    between atoms: _665  and  _666
REMARK  274  A    between atoms: _665  and  _668
REMARK  275  A    between atoms: _668  and  _669
REMARK  276  A    between atoms: _669  and  _670
REMARK  277  A    between atoms: _670  and  _671
REMARK  278  A    between atoms: _680  and  _682
REMARK  279  A    between atoms: _682  and  _683
REMARK  280  A    between atoms: _682  and  _685
REMARK  281  A    between atoms: _685  and  _686
REMARK  282  A    between atoms: _686  and  _687
REMARK  283  A    between atoms: _687  and  _688
REMARK  284  A    between atoms: _697  and  _699
REMARK  285  A    between atoms: _699  and  _700
REMARK  286  A    between atoms: _699  and  _702
REMARK  287  A    between atoms: _702  and  _703
REMARK  288  A    between atoms: _708  and  _709
REMARK  289  A    between atoms: _711  and  _713
REMARK  290  A    between atoms: _713  and  _714
REMARK  291  A    between atoms: _713  and  _716
REMARK  292  A    between atoms: _716  and  _717
REMARK  293  A    between atoms: _720  and  _722
REMARK  294  A    between atoms: _722  and  _723
REMARK  295  A    between atoms: _722  and  _725
REMARK  296  A    between atoms: _725  and  _726
REMARK  297  A    between atoms: _726  and  _727
REMARK  298  A    between atoms: _727  and  _728
REMARK  299  A    between atoms: _728  and  _729
REMARK  300  A    between atoms: _733  and  _735
REMARK  301  A    between atoms: _735  and  _736
REMARK  302  A    between atoms: _735  and  _738
REMARK  303  A    between atoms: _738  and  _739
REMARK  304  A    between atoms: _744  and  _746
REMARK  305  A    between atoms: _746  and  _747
REMARK  306  A    between atoms: _746  and  _749
REMARK  307  A    between atoms: _749  and  _750
REMARK  308  A    between atoms: _760  and  _762
REMARK  309  A    between atoms: _762  and  _763
REMARK  310  A    between atoms: _762  and  _765
REMARK  311  A    between atoms: _765  and  _766
REMARK  312  A    between atoms: _766  and  _767
REMARK  313  A    between atoms: _770  and  _772
REMARK  314  A    between atoms: _772  and  _773
REMARK  315  A    between atoms: _772  and  _775
REMARK  316  A    between atoms: _775  and  _776
REMARK  317  A    between atoms: _779  and  _781
REMARK  318  A    between atoms: _781  and  _782
REMARK  319  A    between atoms: _781  and  _784
REMARK  320  A    between atoms: _784  and  _785
REMARK  321  A    between atoms: _790  and  _792
REMARK  322  A    between atoms: _792  and  _793
REMARK  323  A    between atoms: _792  and  _795
REMARK  324  A    between atoms: _795  and  _796
REMARK  325  A    between atoms: _802  and  _804
REMARK  326  A    between atoms: _804  and  _805
REMARK  327  A    between atoms: _804  and  _807
REMARK  328  A    between atoms: _807  and  _808
REMARK  329  A    between atoms: _810  and  _812
REMARK  330  A    between atoms: _812  and  _813
REMARK  331  A    between atoms: _815  and  _817
REMARK  332  A    between atoms: _817  and  _818
REMARK  333  A    between atoms: _817  and  _820
REMARK  334  A    between atoms: _820  and  _821
REMARK  335  A    between atoms: _826  and  _827
REMARK  336  A    between atoms: _829  and  _831
REMARK  337  A    between atoms: _831  and  _832
REMARK  338  A    between atoms: _831  and  _834
REMARK  339  A    between atoms: _834  and  _835
REMARK  340  A    between atoms: _840  and  _841
REMARK  341  A    between atoms: _843  and  _845
REMARK  342  A    between atoms: _845  and  _846
REMARK  343  A    between atoms: _845  and  _848
REMARK  344  A    between atoms: _848  and  _849
REMARK  345  A    between atoms: _853  and  ZN_1037
REMARK  346  A    between atoms: _854  and  _856
REMARK  347  A    between atoms: _856  and  _857
REMARK  348  A    between atoms: _856  and  _859
REMARK  349  A    between atoms: _859  and  _860
REMARK  350  A    between atoms: _860  and  _861
REMARK  351  A    between atoms: _864  and  _866
REMARK  352  A    between atoms: _866  and  _867
REMARK  353  A    between atoms: _866  and  _869
REMARK  354  A    between atoms: _869  and  _870
REMARK  355  A    between atoms: _870  and  _871
REMARK  356  A    between atoms: _871  and  _872
REMARK  357  A    between atoms: _881  and  _883
REMARK  358  A    between atoms: _883  and  _884
REMARK  359  A    between atoms: _883  and  _886
REMARK  360  A    between atoms: _886  and  _887
REMARK  361  A    between atoms: _887  and  _888
REMARK  362  A    between atoms: _888  and  _889
REMARK  363  A    between atoms: _889  and  _890
REMARK  364  A    between atoms: _894  and  _896
REMARK  365  A    between atoms: _896  and  _897
REMARK  366  A    between atoms: _896  and  _899
REMARK  367  A    between atoms: _899  and  _900
REMARK  368  A    between atoms: _905  and  _906
REMARK  369  A    between atoms: _908  and  _910
REMARK  370  A    between atoms: _910  and  _911
REMARK  371  A    between atoms: _910  and  _913
REMARK  372  A    between atoms: _913  and  _914
REMARK  373  A    between atoms: _914  and  _915
REMARK  374  A    between atoms: _915  and  _916
REMARK  375  A    between atoms: _916  and  _917
REMARK  376  A    between atoms: _921  and  _923
REMARK  377  A    between atoms: _923  and  _924
REMARK  378  A    between atoms: _923  and  _926
REMARK  379  A    between atoms: _926  and  _927
REMARK  380  A    between atoms: _932  and  _933
REMARK  381  A    between atoms: _935  and  _937
REMARK  382  A    between atoms: _937  and  _938
REMARK  383  A    between atoms: _937  and  _940
REMARK  384  A    between atoms: _940  and  _941
REMARK  385  A    between atoms: _946  and  _947
REMARK  386  A    between atoms: _949  and  _951
REMARK  387  A    between atoms: _951  and  _952
REMARK  388  A    between atoms: _956  and  _957
REMARK  389  A    between atoms: _962  and  _964
REMARK  390  A    between atoms: _964  and  _965
REMARK  391  A    between atoms: _964  and  _967
REMARK  392  A    between atoms: _967  and  _968
REMARK  393  A    between atoms: _970  and  _972
REMARK  394  A    between atoms: _972  and  _973
REMARK  395  A    between atoms: _972  and  _975
REMARK  396  A    between atoms: _975  and  _976
REMARK  397  A    between atoms: _981  and  _983
REMARK  398  A    between atoms: _983  and  _984
REMARK  399  A    between atoms: _983  and  _986
REMARK  400  A    between atoms: _986  and  _987
REMARK  401  A    between atoms: _987  and  _988
REMARK  402  A    between atoms: _988  and  _989
REMARK  403  A    between atoms: _989  and  _990
REMARK  404  A    between atoms: _994  and  _996
REMARK  405  A    between atoms: _996  and  _997
REMARK  406  A    between atoms: _996  and  _999
REMARK  407  A    between atoms: _999  and  _1000
REMARK  408  A    between atoms: _1005  and  _1006
REMARK  409  A    between atoms: _1008  and  _1010
REMARK  410  A    between atoms: _1010  and  _1011
REMARK  411  A    between atoms: _1014  and  _1016
REMARK  412  A    between atoms: _1016  and  _1017
REMARK  413  A    between atoms: _1019  and  _1021
REMARK  414  A    between atoms: _1021  and  _1022
REMARK  415  A    between atoms: _1021  and  _1024
REMARK  416  A    between atoms: _1024  and  _1025
REMARK  417  A    between atoms: _1025  and  _1026
REMARK  418  A    between atoms: _1029  and  _1031
REMARK  419  A    between atoms: _1031  and  _1032
REMARK  420  A    between atoms: _1031  and  _1034
REMARK  421  A    between atoms: _1034  and  _1035
REMARK                            x       y       z     vdW  Elec       q    Type
REMARK                         _______ _______ _______ _____ _____    ______ ____
ROOT
ATOM      1  CA  TYR A   3      20.477  52.339  40.860  0.00  0.00    +0.153 C 
ENDROOT
BRANCH   1   4
ATOM      2  C   LYS A   2      18.675  53.352  39.615  0.00  0.00    +0.241 C 
ATOM      3  O   LYS A   2      18.180  53.734  40.706  0.00  0.00    -0.273 OA
ATOM      4  N   TYR A   3      19.846  52.666  39.552  0.00  0.00    -0.297 N 
ATOM      5  H   TYR A   3      20.275  52.387  38.647  0.00  0.00    +0.150 HD
BRANCH   2   6
ATOM      6  CA  LYS A   2      17.979  53.668  38.312  0.00  0.00    +0.149 C 
BRANCH   6   9
ATOM      7  C   ASN A   1      19.957  54.540  37.186  0.00  0.00    +0.239 C 
ATOM      8  O   ASN A   1      20.280  55.184  38.174  0.00  0.00    -0.274 OA
ATOM      9  N   LYS A   2      18.868  53.772  37.161  0.00  0.00    -0.297 N 
ATOM     10  H   LYS A   2      18.647  53.234  36.299  0.00  0.00    +0.150 HD
BRANCH   7  11
ATOM     11  CA  ASN A   1      20.763  54.579  35.913  0.00  0.00    +0.154 C 
BRANCH  11  12
ATOM     12  N   ASN A   1      20.371  55.779  35.157  0.00  0.00    -0.238 NA
ATOM     13  H   ASN A   1      19.765  56.502  35.594  0.00  0.00    +0.142 HD
ENDBRANCH  11  12
BRANCH  11  14
ATOM     14  CB  ASN A   1      22.236  54.684  36.316  0.00  0.00    +0.111 C 
BRANCH  14  15
ATOM     15  CG  ASN A   1      22.686  53.526  37.239  0.00  0.00    +0.221 C 
ATOM     16  ND2 ASN A   1      23.896  53.635  37.828  0.00  0.00    -0.329 N 
ATOM     17 HD21 ASN A   1      24.242  52.877  38.450  0.00  0.00    +0.145 HD
ATOM     18 HD22 ASN A   1      24.482  54.477  37.659  0.00  0.00    +0.145 HD
ATOM     19  OD1 ASN A   1      21.948  52.548  37.404  0.00  0.00    -0.275 OA
ENDBRANCH  14  15
ENDBRANCH  11  14
ENDBRANCH   7  11
ENDBRANCH   6   9
BRANCH   6  20
ATOM     20  CB  LYS A   2      16.940  52.568  38.002  0.00  0.00    +0.029 C 
BRANCH  20  21
ATOM     21  CG  LYS A   2      15.795  52.524  39.013  0.00  0.00    +0.000 C 
BRANCH  21  22
ATOM     22  CD  LYS A   2      14.809  51.416  38.572  0.00  0.00    -0.024 C 
BRANCH  22  23
ATOM     23  CE  LYS A   2      13.435  51.614  39.287  0.00  0.00    -0.086 C 
BRANCH  23  24
ATOM     24  NZ  LYS A   2      12.550  50.458  38.998  0.00  0.00    +0.380 N 
ATOM     25  HZ1 LYS A   2      11.637  50.594  39.476  0.00  0.00    -0.089 HD
ATOM     26  HZ2 LYS A   2      12.997  49.585  39.345  0.00  0.00    -0.089 HD
ATOM     27  HZ3 LYS A   2      12.398  50.387  37.972  0.00  0.00    -0.089 HD
ENDBRANCH  23  24
ENDBRANCH  22  23
ENDBRANCH  21  22
ENDBRANCH  20  21
ENDBRANCH   6  20
ENDBRANCH   2   6
ENDBRANCH   1   4
BRANCH   1  28
ATOM     28  C   TYR A   3      21.108  53.525  41.576  0.00  0.00    +0.241 C 
ATOM     29  O   TYR A   3      21.258  53.501  42.838  0.00  0.00    -0.273 OA
ATOM     30  N   ALA A   4      21.451  54.555  40.818  0.00  0.00    -0.297 N 
ATOM     31  H   ALA A   4      21.189  54.542  39.812  0.00  0.00    +0.150 HD
BRANCH  30  32
ATOM     32  CA  ALA A   4      22.182  55.710  41.335  0.00  0.00    +0.149 C 
ATOM     33  CB  ALA A   4      23.081  56.251  40.280  0.00  0.00    +0.031 C 
BRANCH  32  34
ATOM     34  C   ALA A   4      21.208  56.815  41.740  0.00  0.00    +0.241 C 
ATOM     35  N   GLY A   5      21.521  57.501  42.829  0.00  0.00    -0.295 N 
ATOM     36  H   GLY A   5      22.328  57.235  43.429  0.00  0.00    +0.150 HD
ATOM     37  O   ALA A   4      20.192  57.038  41.094  0.00  0.00    -0.273 OA
BRANCH  35  38
ATOM     38  CA  GLY A   5      20.674  58.654  43.147  0.00  0.00    +0.176 C 
BRANCH  38  39
ATOM     39  C   GLY A   5      21.245  59.876  42.459  0.00  0.00    +0.243 C 
ATOM     40  O   GLY A   5      22.480  59.985  42.255  0.00  0.00    -0.273 OA
ATOM     41  N   GLU A   6      20.349  60.818  42.131  0.00  0.00    -0.297 N 
ATOM     42  H   GLU A   6      19.333  60.627  42.246  0.00  0.00    +0.150 HD
BRANCH  41  43
ATOM     43  CA  GLU A   6      20.787  62.102  41.616  0.00  0.00    +0.149 C 
BRANCH  43  44
ATOM     44  C   GLU A   6      20.235  63.187  42.530  0.00  0.00    +0.241 C 
ATOM     45  O   GLU A   6      19.085  63.098  42.942  0.00  0.00    -0.273 OA
ATOM     46  N   SER A   7      21.045  64.219  42.790  0.00  0.00    -0.296 N 
ATOM     47  H   SER A   7      22.010  64.234  42.403  0.00  0.00    +0.150 HD
BRANCH  46  48
ATOM     48  CA  SER A   7      20.564  65.343  43.633  0.00  0.00    +0.166 C 
BRANCH  48  49
ATOM     49  C   SER A   7      20.085  66.459  42.720  0.00  0.00    +0.229 C 
ATOM     50  O   SER A   7      20.534  66.600  41.577  0.00  0.00    -0.286 OA
ENDBRANCH  48  49
BRANCH  48  51
ATOM     51  CB  SER A   7      21.659  65.833  44.578  0.00  0.00    +0.165 C 
BRANCH  51  52
ATOM     52  OG  SER A   7      22.864  66.123  43.867  0.00  0.00    -0.380 OA
ATOM     53  H   SER A   7      22.688  66.828  43.195  0.00  0.00    +0.211 HD
ENDBRANCH  51  52
ENDBRANCH  48  51
ENDBRANCH  46  48
ENDBRANCH  43  44
BRANCH  43  54
ATOM     54  CB  GLU A   6      20.238  62.290  40.203  0.00  0.00    +0.041 C 
BRANCH  54  55
ATOM     55  CG  GLU A   6      20.810  63.541  39.497  0.00  0.00    +0.116 C 
BRANCH  55  56
ATOM     56  CD  GLU A   6      22.346  63.529  39.571  0.00  0.00    +0.365 C 
ATOM     57  OE2 GLU A   6      22.974  64.235  40.443  0.00  0.00    -0.246 OA
ATOM     58  OE1 GLU A   6      22.924  62.745  38.791  0.00  0.00    -0.246 OA
ENDBRANCH  55  56
ENDBRANCH  54  55
ENDBRANCH  43  54
ENDBRANCH  41  43
ENDBRANCH  38  39
ENDBRANCH  35  38
ENDBRANCH  32  34
ENDBRANCH  30  32
ENDBRANCH   1  28
BRANCH   1  59
ATOM     59  CB  TYR A   3      21.563  51.296  40.673  0.00  0.00    +0.055 C 
BRANCH  59  60
ATOM     60  CG  TYR A   3      21.101  49.933  40.246  0.00  0.00    -0.020 A 
ATOM     61  CD2 TYR A   3      19.952  49.337  40.768  0.00  0.00    -0.001 A 
ATOM     62  CE2 TYR A   3      19.557  48.030  40.345  0.00  0.00    +0.036 A 
ATOM     63  CZ  TYR A   3      20.331  47.361  39.412  0.00  0.00    +0.134 A 
ATOM     64  CE1 TYR A   3      21.483  47.927  38.905  0.00  0.00    +0.036 A 
ATOM     65  CD1 TYR A   3      21.853  49.218  39.322  0.00  0.00    -0.001 A 
BRANCH  63  66
ATOM     66  OH  TYR A   3      19.993  46.085  38.994  0.00  0.00    -0.506 OA
ATOM     67  HH  TYR A   3      19.151  45.807  39.434  0.00  0.00    +0.292 HD
ENDBRANCH  63  66
ENDBRANCH  59  60
ENDBRANCH   1  59
TORSDOF 29
REMARK  Name = ../refined-set-2016/2xef/2xef_pocket.pdb
REMARK  421 active torsions:
REMARK  status: ('A' for Active; 'I' for Inactive)
REMARK    1  A    between atoms: _1  and  _3
REMARK    2  A    between atoms: _3  and  _4
REMARK    3  A    between atoms: _7  and  _9
REMARK    4  A    between atoms: _9  and  _10
REMARK    5  A    between atoms: _9  and  _12
REMARK    6  A    between atoms: _12  and  _13
REMARK    7  A    between atoms: _19  and  _21
REMARK    8  A    between atoms: _21  and  _22
REMARK    9  A    between atoms: _21  and  _24
REMARK   10  A    between atoms: _24  and  _25
REMARK   11  A    between atoms: _30  and  _31
REMARK   12  A    between atoms: _33  and  _35
REMARK   13  A    between atoms: _35  and  _36
REMARK   14  A    between atoms: _38  and  _40
REMARK   15  A    between atoms: _40  and  _41
REMARK   16  A    between atoms: _40  and  _43
REMARK   17  A    between atoms: _43  and  _44
REMARK   18  A    between atoms: _44  and  _45
REMARK   19  A    between atoms: _45  and  _46
REMARK   20  A    between atoms: _46  and  _47
REMARK   21  A    between atoms: _51  and  _53
REMARK   22  A    between atoms: _53  and  _54
REMARK   23  A    between atoms: _53  and  _56
REMARK   24  A    between atoms: _59  and  _61
REMARK   25  A    between atoms: _61  and  _62
REMARK   26  A    between atoms: _61  and  _64
REMARK   27  A    between atoms: _64  and  _65
REMARK   28  A    between atoms: _71  and  _73
REMARK   29  A    between atoms: _73  and  _74
REMARK   30  A    between atoms: _73  and  _76
REMARK   31  A    between atoms: _76  and  _77
REMARK   32  A    between atoms: _77  and  _78
REMARK   33  A    between atoms: _78  and  _79
REMARK   34  A    between atoms: _88  and  _90
REMARK   35  A    between atoms: _90  and  _91
REMARK   36  A    between atoms: _93  and  _95
REMARK   37  A    between atoms: _95  and  _96
REMARK   38  A    between atoms: _95  and  _98
REMARK   39  A    between atoms: _98  and  _99
REMARK   40  A    between atoms: _99  and  _100
REMARK   41  A    between atoms: _100  and  _101
REMARK   42  A    between atoms: _101  and  _102
REMARK   43  A    between atoms: _106  and  _108
REMARK   44  A    between atoms: _108  and  _109
REMARK   45  A    between atoms: _108  and  _111
REMARK   46  A    between atoms: _111  and  _112
REMARK   47  A    between atoms: _117  and  _118
REMARK   48  A    between atoms: _120  and  _122
REMARK   49  A    between atoms: _122  and  _123
REMARK   50  A    between atoms: _122  and  _125
REMARK   51  A    between atoms: _125  and  _126
REMARK   52  A    between atoms: _126  and  _127
REMARK   53  A    between atoms: _132  and  _134
REMARK   54  A    between atoms: _134  and  _135
REMARK   55  A    between atoms: _134  and  _137
REMARK   56  A    between atoms: _137  and  _138
REMARK   57  A    between atoms: _138  and  _139
REMARK   58  A    between atoms: _139  and  _140
REMARK   59  A    between atoms: _149  and  _151
REMARK   60  A    between atoms: _151  and  _152
REMARK   61  A    between atoms: _154  and  _156
REMARK   62  A    between atoms: _156  and  _157
REMARK   63  A    between atoms: _156  and  _159
REMARK   64  A    between atoms: _159  and  _160
REMARK   65  A    between atoms: _165  and  _167
REMARK   66  A    between atoms: _167  and  _168
REMARK   67  A    between atoms: _167  and  _170
REMARK   68  A    between atoms: _170  and  _171
REMARK   69  A    between atoms: _174  and  _176
REMARK   70  A    between atoms: _176  and  _177
REMARK   71  A    between atoms: _176  and  _179
REMARK   72  A    between atoms: _179  and  _180
REMARK   73  A    between atoms: _183  and  _185
REMARK   74  A    between atoms: _185  and  _186
REMARK   75  A    between atoms: _185  and  _188
REMARK   76  A    between atoms: _188  and  _189
REMARK   77  A    between atoms: _194  and  _196
REMARK   78  A    between atoms: _196  and  _197
REMARK   79  A    between atoms: _196  and  _199
REMARK   80  A    between atoms: _199  and  _200
REMARK   81  A    between atoms: _203  and  _205
REMARK   82  A    between atoms: _205  and  _206
REMARK   83  A    between atoms: _205  and  _208
REMARK   84  A    between atoms: _208  and  _209
REMARK   85  A    between atoms: _214  and  _216
REMARK   86  A    between atoms: _216  and  _217
REMARK   87  A    between atoms: _219  and  _221
REMARK   88  A    between atoms: _221  and  _222
REMARK   89  A    between atoms: _224  and  _226
REMARK   90  A    between atoms: _226  and  _227
REMARK   91  A    between atoms: _226  and  _229
REMARK   92  A    between atoms: _229  and  _230
REMARK   93  A    between atoms: _234  and  ZN_1038
REMARK   94  A    between atoms: _235  and  _237
REMARK   95  A    between atoms: _237  and  _238
REMARK   96  A    between atoms: _237  and  _240
REMARK   97  A    between atoms: _240  and  _241
REMARK   98  A    between atoms: _244  and  _246
REMARK   99  A    between atoms: _246  and  _247
REMARK  100  A    between atoms: _246  and  _249
REMARK  101  A    between atoms: _249  and  _250
REMARK  102  A    between atoms: _260  and  _262
REMARK  103  A    between atoms: _262  and  _263
REMARK  104  A    between atoms: _262  and  _265
REMARK  105  A    between atoms: _265  and  _266
REMARK  106  A    between atoms: _269  and  _271
REMARK  107  A    between atoms: _271  and  _272
REMARK  108  A    between atoms: _271  and  _274
REMARK  109  A    between atoms: _274  and  _275
REMARK  110  A    between atoms: _279  and  _280
REMARK  111  A    between atoms: _285  and  _287
REMARK  112  A    between atoms: _287  and  _288
REMARK  113  A    between atoms: _291  and  _293
REMARK  114  A    between atoms: _293  and  _294
REMARK  115  A    between atoms: _293  and  _296
REMARK  116  A    between atoms: _296  and  _297
REMARK  117  A    between atoms: _297  and  _298
REMARK  118  A    between atoms: _301  and  _303
REMARK  119  A    between atoms: _303  and  _304
REMARK  120  A    between atoms: _303  and  _306
REMARK  121  A    between atoms: _306  and  _307
REMARK  122  A    between atoms: _307  and  _308
REMARK  123  A    between atoms: _308  and  _310
REMARK  124  A    between atoms: _310  and  ZN_1037
REMARK  125  A    between atoms: _311  and  _313
REMARK  126  A    between atoms: _313  and  _314
REMARK  127  A    between atoms: _313  and  _316
REMARK  128  A    between atoms: _316  and  _317
REMARK  129  A    between atoms: _323  and  _325
REMARK  130  A    between atoms: _325  and  _326
REMARK  131  A    between atoms: _328  and  _330
REMARK  132  A    between atoms: _330  and  _331
REMARK  133  A    between atoms: _330  and  _333
REMARK  134  A    between atoms: _333  and  _334
REMARK  135  A    between atoms: _337  and  _339
REMARK  136  A    between atoms: _339  and  _340
REMARK  137  A    between atoms: _339  and  _342
REMARK  138  A    between atoms: _342  and  _343
REMARK  139  A    between atoms: _346  and  _348
REMARK  140  A    between atoms: _348  and  _349
REMARK  141  A    between atoms: _348  and  _351
REMARK  142  A    between atoms: _351  and  _352
REMARK  143  A    between atoms: _357  and  _359
REMARK  144  A    between atoms: _359  and  _360
REMARK  145  A    between atoms: _359  and  _362
REMARK  146  A    between atoms: _362  and  _363
REMARK  147  A    between atoms: _363  and  _365
REMARK  148  A    between atoms: _365  and  ZN_1038
REMARK  149  A    between atoms: _366  and  _368
REMARK  150  A    between atoms: _368  and  _369
REMARK  151  A    between atoms: _368  and  _371
REMARK  152  A    between atoms: _371  and  _372
REMARK  153  A    between atoms: _374  and  _376
REMARK  154  A    between atoms: _376  and  _377
REMARK  155  A    between atoms: _376  and  _379
REMARK  156  A    between atoms: _379  and  _380
REMARK  157  A    between atoms: _382  and  _384
REMARK  158  A    between atoms: _384  and  _385
REMARK  159  A    between atoms: _384  and  _387
REMARK  160  A    between atoms: _387  and  _388
REMARK  161  A    between atoms: _391  and  _393
REMARK  162  A    between atoms: _393  and  _394
REMARK  163  A    between atoms: _393  and  _396
REMARK  164  A    between atoms: _396  and  _397
REMARK  165  A    between atoms: _397  and  _398
REMARK  166  A    between atoms: _401  and  _403
REMARK  167  A    between atoms: _403  and  _404
REMARK  168  A    between atoms: _403  and  _406
REMARK  169  A    between atoms: _406  and  _407
REMARK  170  A    between atoms: _412  and  _413
REMARK  171  A    between atoms: _415  and  _417
REMARK  172  A    between atoms: _417  and  _418
REMARK  173  A    between atoms: _417  and  _420
REMARK  174  A    between atoms: _420  and  _421
REMARK  175  A    between atoms: _424  and  _426
REMARK  176  A    between atoms: _426  and  _427
REMARK  177  A    between atoms: _426  and  _429
REMARK  178  A    between atoms: _429  and  _430
REMARK  179  A    between atoms: _433  and  _435
REMARK  180  A    between atoms: _435  and  _436
REMARK  181  A    between atoms: _435  and  _438
REMARK  182  A    between atoms: _438  and  _439
REMARK  183  A    between atoms: _439  and  _440
REMARK  184  A    between atoms: _440  and  _441
REMARK  185  A    between atoms: _450  and  _452
REMARK  186  A    between atoms: _452  and  _453
REMARK  187  A    between atoms: _452  and  _455
REMARK  188  A    between atoms: _458  and  _460
REMARK  189  A    between atoms: _460  and  _461
REMARK  190  A    between atoms: _460  and  _463
REMARK  191  A    between atoms: _463  and  _464
REMARK  192  A    between atoms: _467  and  _469
REMARK  193  A    between atoms: _469  and  _470
REMARK  194  A    between atoms: _469  and  _472
REMARK  195  A    between atoms: _474  and  _476
REMARK  196  A    between atoms: _476  and  _477
REMARK  197  A    between atoms: _476  and  _479
REMARK  198  A    between atoms: _479  and  _480
REMARK  199  A    between atoms: _490  and  _492
REMARK  200  A    between atoms: _492  and  _493
REMARK  201  A    between atoms: _492  and  _495
REMARK  202  A    between atoms: _495  and  _496
REMARK  203  A    between atoms: _496  and  _497
REMARK  204  A    between atoms: _497  and  _498
REMARK  205  A    between atoms: _498  and  _499
REMARK  206  A    between atoms: _503  and  _505
REMARK  207  A    between atoms: _505  and  _506
REMARK  208  A    between atoms: _505  and  _508
REMARK  209  A    between atoms: _508  and  _509
REMARK  210  A    between atoms: _512  and  _513
REMARK  211  A    between atoms: _519  and  _520
REMARK  212  A    between atoms: _525  and  _527
REMARK  213  A    between atoms: _527  and  _528
REMARK  214  A    between atoms: _527  and  _530
REMARK  215  A    between atoms: _530  and  _531
REMARK  216  A    between atoms: _531  and  _532
REMARK  217  A    between atoms: _535  and  _537
REMARK  218  A    between atoms: _537  and  _538
REMARK  219  A    between atoms: _537  and  _540
REMARK  220  A    between atoms: _540  and  _541
REMARK  221  A    between atoms: _541  and  _542
REMARK  222  A    between atoms: _542  and  _543
REMARK  223  A    between atoms: _552  and  _554
REMARK  224  A    between atoms: _554  and  _555
REMARK  225  A    between atoms: _554  and  _557
REMARK  226  A    between atoms: _557  and  _558
REMARK  227  A    between atoms: _561  and  _563
REMARK  228  A    between atoms: _563  and  _564
REMARK  229  A    between atoms: _563  and  _566
REMARK  230  A    between atoms: _566  and  _567
REMARK  231  A    between atoms: _569  and  _571
REMARK  232  A    between atoms: _571  and  _572
REMARK  233  A    between atoms: _571  and  _574
REMARK  234  A    between atoms: _574  and  _575
REMARK  235  A    between atoms: _575  and  _576
REMARK  236  A    between atoms: _576  and  _577
REMARK  237  A    between atoms: _577  and  _578
REMARK  238  A    between atoms: _582  and  _584
REMARK  239  A    between atoms: _584  and  _585
REMARK  240  A    between atoms: _584  and  _587
REMARK  241  A    between atoms: _587  and  _588
REMARK  242  A    between atoms: _591  and  _593
REMARK  243  A    between atoms: _593  and  _594
REMARK  244  A    between atoms: _596  and  _598
REMARK  245  A    between atoms: _598  and  _599
REMARK  246  A    between atoms: _598  and  _601
REMARK  247  A    between atoms: _601  and  _602
REMARK  248  A    between atoms: _604  and  _606
REMARK  249  A    between atoms: _606  and  _607
REMARK  250  A    between atoms: _609  and  _611
REMARK  251  A    between atoms: _611  and  _612
REMARK  252  A    between atoms: _611  and  _614
REMARK  253  A    between atoms: _614  and  _615
REMARK  254  A    between atoms: _620  and  _622
REMARK  255  A    between atoms: _622  and  _623
REMARK  256  A    between atoms: _622  and  _625
REMARK  257  A    between atoms: _625  and  _626
REMARK  258  A    between atoms: _629  and  _631
REMARK  259  A    between atoms: _631  and  _632
REMARK  260  A    between atoms: _631  and  _634
REMARK  261  A    between atoms: _634  and  _635
REMARK  262  A    between atoms: _641  and  _643
REMARK  263  A    between atoms: _643  and  _644
REMARK  264  A    between atoms: _643  and  _646
REMARK  265  A    between atoms: _646  and  _647
REMARK  266  A    between atoms: _647  and  _648
REMARK  267  A    between atoms: _651  and  _653
REMARK  268  A    between atoms: _653  and  _654
REMARK  269  A    between atoms: _653  and  _656
REMARK  270  A    between atoms: _656  and  _657
REMARK  271  A    between atoms: _657  and  _658
REMARK  272  A    between atoms: _663  and  _665
REMARK  273  A    between atoms: _665  and  _666
REMARK  274  A    between atoms: _665  and  _668
REMARK  275  A    between atoms: _668  and  _669
REMARK  276  A    between atoms: _669  and  _670
REMARK  277  A    between atoms: _670  and  _671
REMARK  278  A    between atoms: _680  and  _682
REMARK  279  A    between atoms: _682  and  _683
REMARK  280  A    between atoms: _682  and  _685
REMARK  281  A    between atoms: _685  and  _686
REMARK  282  A    between atoms: _686  and  _687
REMARK  283  A    between atoms: _687  and  _688
REMARK  284  A    between atoms: _697  and  _699
REMARK  285  A    between atoms: _699  and  _700
REMARK  286  A    between atoms: _699  and  _702
REMARK  287  A    between atoms: _702  and  _703
REMARK  288  A    between atoms: _708  and  _709
REMARK  289  A    between atoms: _711  and  _713
REMARK  290  A    between atoms: _713  and  _714
REMARK  291  A    between atoms: _713  and  _716
REMARK  292  A    between atoms: _716  and  _717
REMARK  293  A    between atoms: _720  and  _722
REMARK  294  A    between atoms: _722  and  _723
REMARK  295  A    between atoms: _722  and  _725
REMARK  296  A    between atoms: _725  and  _726
REMARK  297  A    between atoms: _726  and  _727
REMARK  298  A    between atoms: _727  and  _728
REMARK  299  A    between atoms: _728  and  _729
REMARK  300  A    between atoms: _733  and  _735
REMARK  301  A    between atoms: _735  and  _736
REMARK  302  A    between atoms: _735  and  _738
REMARK  303  A    between atoms: _738  and  _739
REMARK  304  A    between atoms: _744  and  _746
REMARK  305  A    between atoms: _746  and  _747
REMARK  306  A    between atoms: _746  and  _749
REMARK  307  A    between atoms: _749  and  _750
REMARK  308  A    between atoms: _760  and  _762
REMARK  309  A    between atoms: _762  and  _763
REMARK  310  A    between atoms: _762  and  _765
REMARK  311  A    between atoms: _765  and  _766
REMARK  312  A    between atoms: _766  and  _767
REMARK  313  A    between atoms: _770  and  _772
REMARK  314  A    between atoms: _772  and  _773
REMARK  315  A    between atoms: _772  and  _775
REMARK  316  A    between atoms: _775  and  _776
REMARK  317  A    between atoms: _779  and  _781
REMARK  318  A    between atoms: _781  and  _782
REMARK  319  A    between atoms: _781  and  _784
REMARK  320  A    between atoms: _784  and  _785
REMARK  321  A    between atoms: _790  and  _792
REMARK  322  A    between atoms: _792  and  _793
REMARK  323  A    between atoms: _792  and  _795
REMARK  324  A    between atoms: _795  and  _796
REMARK  325  A    between atoms: _802  and  _804
REMARK  326  A    between atoms: _804  and  _805
REMARK  327  A    between atoms: _804  and  _807
REMARK  328  A    between atoms: _807  and  _808
REMARK  329  A    between atoms: _810  and  _812
REMARK  330  A    between atoms: _812  and  _813
REMARK  331  A    between atoms: _815  and  _817
REMARK  332  A    between atoms: _817  and  _818
REMARK  333  A    between atoms: _817  and  _820
REMARK  334  A    between atoms: _820  and  _821
REMARK  335  A    between atoms: _826  and  _827
REMARK  336  A    between atoms: _829  and  _831
REMARK  337  A    between atoms: _831  and  _832
REMARK  338  A    between atoms: _831  and  _834
REMARK  339  A    between atoms: _834  and  _835
REMARK  340  A    between atoms: _840  and  _841
REMARK  341  A    between atoms: _843  and  _845
REMARK  342  A    between atoms: _845  and  _846
REMARK  343  A    between atoms: _845  and  _848
REMARK  344  A    between atoms: _848  and  _849
REMARK  345  A    between atoms: _853  and  ZN_1037
REMARK  346  A    between atoms: _854  and  _856
REMARK  347  A    between atoms: _856  and  _857
REMARK  348  A    between atoms: _856  and  _859
REMARK  349  A    between atoms: _859  and  _860
REMARK  350  A    between atoms: _860  and  _861
REMARK  351  A    between atoms: _864  and  _866
REMARK  352  A    between atoms: _866  and  _867
REMARK  353  A    between atoms: _866  and  _869
REMARK  354  A    between atoms: _869  and  _870
REMARK  355  A    between atoms: _870  and  _871
REMARK  356  A    between atoms: _871  and  _872
REMARK  357  A    between atoms: _881  and  _883
REMARK  358  A    between atoms: _883  and  _884
REMARK  359  A    between atoms: _883  and  _886
REMARK  360  A    between atoms: _886  and  _887
REMARK  361  A    between atoms: _887  and  _888
REMARK  362  A    between atoms: _888  and  _889
REMARK  363  A    between atoms: _889  and  _890
REMARK  364  A    between atoms: _894  and  _896
REMARK  365  A    between atoms: _896  and  _897
REMARK  366  A    between atoms: _896  and  _899
REMARK  367  A    between atoms: _899  and  _900
REMARK  368  A    between atoms: _905  and  _906
REMARK  369  A    between atoms: _908  and  _910
REMARK  370  A    between atoms: _910  and  _911
REMARK  371  A    between atoms: _910  and  _913
REMARK  372  A    between atoms: _913  and  _914
REMARK  373  A    between atoms: _914  and  _915
REMARK  374  A    between atoms: _915  and  _916
REMARK  375  A    between atoms: _916  and  _917
REMARK  376  A    between atoms: _921  and  _923
REMARK  377  A    between atoms: _923  and  _924
REMARK  378  A    between atoms: _923  and  _926
REMARK  379  A    between atoms: _926  and  _927
REMARK  380  A    between atoms: _932  and  _933
REMARK  381  A    between atoms: _935  and  _937
REMARK  382  A    between atoms: _937  and  _938
REMARK  383  A    between atoms: _937  and  _940
REMARK  384  A    between atoms: _940  and  _941
REMARK  385  A    between atoms: _946  and  _947
REMARK  386  A    between atoms: _949  and  _951
REMARK  387  A    between atoms: _951  and  _952
REMARK  388  A    between atoms: _956  and  _957
REMARK  389  A    between atoms: _962  and  _964
REMARK  390  A    between atoms: _964  and  _965
REMARK  391  A    between atoms: _964  and  _967
REMARK  392  A    between atoms: _967  and  _968
REMARK  393  A    between atoms: _970  and  _972
REMARK  394  A    between atoms: _972  and  _973
REMARK  395  A    between atoms: _972  and  _975
REMARK  396  A    between atoms: _975  and  _976
REMARK  397  A    between atoms: _981  and  _983
REMARK  398  A    between atoms: _983  and  _984
REMARK  399  A    between atoms: _983  and  _986
REMARK  400  A    between atoms: _986  and  _987
REMARK  401  A    between atoms: _987  and  _988
REMARK  402  A    between atoms: _988  and  _989
REMARK  403  A    between atoms: _989  and  _990
REMARK  404  A    between atoms: _994  and  _996
REMARK  405  A    between atoms: _996  and  _997
REMARK  406  A    between atoms: _996  and  _999
REMARK  407  A    between atoms: _999  and  _1000
REMARK  408  A    between atoms: _1005  and  _1006
REMARK  409  A    between atoms: _1008  and  _1010
REMARK  410  A    between atoms: _1010  and  _1011
REMARK  411  A    between atoms: _1014  and  _1016
REMARK  412  A    between atoms: _1016  and  _1017
REMARK  413  A    between atoms: _1019  and  _1021
REMARK  414  A    between atoms: _1021  and  _1022
REMARK  415  A    between atoms: _1021  and  _1024
REMARK  416  A    between atoms: _1024  and  _1025
REMARK  417  A    between atoms: _1025  and  _1026
REMARK  418  A    between atoms: _1029  and  _1031
REMARK  419  A    between atoms: _1031  and  _1032
REMARK  420  A    between atoms: _1031  and  _1034
REMARK  421  A    between atoms: _1034  and  _1035
REMARK                            x       y       z     vdW  Elec       q    Type
REMARK                         _______ _______ _______ _____ _____    ______ ____
ROOT
ATOM      1  O   HOH     1      14.427  38.001  34.830  0.00  0.00    +0.000 OA
ENDROOT
TORSDOF 0
REMARK  Name = ../refined-set-2016/2xef/2xef_pocket.pdb
REMARK  421 active torsions:
REMARK  status: ('A' for Active; 'I' for Inactive)
REMARK    1  A    between atoms: _1  and  _3
REMARK    2  A    between atoms: _3  and  _4
REMARK    3  A    between atoms: _7  and  _9
REMARK    4  A    between atoms: _9  and  _10
REMARK    5  A    between atoms: _9  and  _12
REMARK    6  A    between atoms: _12  and  _13
REMARK    7  A    between atoms: _19  and  _21
REMARK    8  A    between atoms: _21  and  _22
REMARK    9  A    between atoms: _21  and  _24
REMARK   10  A    between atoms: _24  and  _25
REMARK   11  A    between atoms: _30  and  _31
REMARK   12  A    between atoms: _33  and  _35
REMARK   13  A    between atoms: _35  and  _36
REMARK   14  A    between atoms: _38  and  _40
REMARK   15  A    between atoms: _40  and  _41
REMARK   16  A    between atoms: _40  and  _43
REMARK   17  A    between atoms: _43  and  _44
REMARK   18  A    between atoms: _44  and  _45
REMARK   19  A    between atoms: _45  and  _46
REMARK   20  A    between atoms: _46  and  _47
REMARK   21  A    between atoms: _51  and  _53
REMARK   22  A    between atoms: _53  and  _54
REMARK   23  A    between atoms: _53  and  _56
REMARK   24  A    between atoms: _59  and  _61
REMARK   25  A    between atoms: _61  and  _62
REMARK   26  A    between atoms: _61  and  _64
REMARK   27  A    between atoms: _64  and  _65
REMARK   28  A    between atoms: _71  and  _73
REMARK   29  A    between atoms: _73  and  _74
REMARK   30  A    between atoms: _73  and  _76
REMARK   31  A    between atoms: _76  and  _77
REMARK   32  A    between atoms: _77  and  _78
REMARK   33  A    between atoms: _78  and  _79
REMARK   34  A    between atoms: _88  and  _90
REMARK   35  A    between atoms: _90  and  _91
REMARK   36  A    between atoms: _93  and  _95
REMARK   37  A    between atoms: _95  and  _96
REMARK   38  A    between atoms: _95  and  _98
REMARK   39  A    between atoms: _98  and  _99
REMARK   40  A    between atoms: _99  and  _100
REMARK   41  A    between atoms: _100  and  _101
REMARK   42  A    between atoms: _101  and  _102
REMARK   43  A    between atoms: _106  and  _108
REMARK   44  A    between atoms: _108  and  _109
REMARK   45  A    between atoms: _108  and  _111
REMARK   46  A    between atoms: _111  and  _112
REMARK   47  A    between atoms: _117  and  _118
REMARK   48  A    between atoms: _120  and  _122
REMARK   49  A    between atoms: _122  and  _123
REMARK   50  A    between atoms: _122  and  _125
REMARK   51  A    between atoms: _125  and  _126
REMARK   52  A    between atoms: _126  and  _127
REMARK   53  A    between atoms: _132  and  _134
REMARK   54  A    between atoms: _134  and  _135
REMARK   55  A    between atoms: _134  and  _137
REMARK   56  A    between atoms: _137  and  _138
REMARK   57  A    between atoms: _138  and  _139
REMARK   58  A    between atoms: _139  and  _140
REMARK   59  A    between atoms: _149  and  _151
REMARK   60  A    between atoms: _151  and  _152
REMARK   61  A    between atoms: _154  and  _156
REMARK   62  A    between atoms: _156  and  _157
REMARK   63  A    between atoms: _156  and  _159
REMARK   64  A    between atoms: _159  and  _160
REMARK   65  A    between atoms: _165  and  _167
REMARK   66  A    between atoms: _167  and  _168
REMARK   67  A    between atoms: _167  and  _170
REMARK   68  A    between atoms: _170  and  _171
REMARK   69  A    between atoms: _174  and  _176
REMARK   70  A    between atoms: _176  and  _177
REMARK   71  A    between atoms: _176  and  _179
REMARK   72  A    between atoms: _179  and  _180
REMARK   73  A    between atoms: _183  and  _185
REMARK   74  A    between atoms: _185  and  _186
REMARK   75  A    between atoms: _185  and  _188
REMARK   76  A    between atoms: _188  and  _189
REMARK   77  A    between atoms: _194  and  _196
REMARK   78  A    between atoms: _196  and  _197
REMARK   79  A    between atoms: _196  and  _199
REMARK   80  A    between atoms: _199  and  _200
REMARK   81  A    between atoms: _203  and  _205
REMARK   82  A    between atoms: _205  and  _206
REMARK   83  A    between atoms: _205  and  _208
REMARK   84  A    between atoms: _208  and  _209
REMARK   85  A    between atoms: _214  and  _216
REMARK   86  A    between atoms: _216  and  _217
REMARK   87  A    between atoms: _219  and  _221
REMARK   88  A    between atoms: _221  and  _222
REMARK   89  A    between atoms: _224  and  _226
REMARK   90  A    between atoms: _226  and  _227
REMARK   91  A    between atoms: _226  and  _229
REMARK   92  A    between atoms: _229  and  _230
REMARK   93  A    between atoms: _234  and  ZN_1038
REMARK   94  A    between atoms: _235  and  _237
REMARK   95  A    between atoms: _237  and  _238
REMARK   96  A    between atoms: _237  and  _240
REMARK   97  A    between atoms: _240  and  _241
REMARK   98  A    between atoms: _244  and  _246
REMARK   99  A    between atoms: _246  and  _247
REMARK  100  A    between atoms: _246  and  _249
REMARK  101  A    between atoms: _249  and  _250
REMARK  102  A    between atoms: _260  and  _262
REMARK  103  A    between atoms: _262  and  _263
REMARK  104  A    between atoms: _262  and  _265
REMARK  105  A    between atoms: _265  and  _266
REMARK  106  A    between atoms: _269  and  _271
REMARK  107  A    between atoms: _271  and  _272
REMARK  108  A    between atoms: _271  and  _274
REMARK  109  A    between atoms: _274  and  _275
REMARK  110  A    between atoms: _279  and  _280
REMARK  111  A    between atoms: _285  and  _287
REMARK  112  A    between atoms: _287  and  _288
REMARK  113  A    between atoms: _291  and  _293
REMARK  114  A    between atoms: _293  and  _294
REMARK  115  A    between atoms: _293  and  _296
REMARK  116  A    between atoms: _296  and  _297
REMARK  117  A    between atoms: _297  and  _298
REMARK  118  A    between atoms: _301  and  _303
REMARK  119  A    between atoms: _303  and  _304
REMARK  120  A    between atoms: _303  and  _306
REMARK  121  A    between atoms: _306  and  _307
REMARK  122  A    between atoms: _307  and  _308
REMARK  123  A    between atoms: _308  and  _310
REMARK  124  A    between atoms: _310  and  ZN_1037
REMARK  125  A    between atoms: _311  and  _313
REMARK  126  A    between atoms: _313  and  _314
REMARK  127  A    between atoms: _313  and  _316
REMARK  128  A    between atoms: _316  and  _317
REMARK  129  A    between atoms: _323  and  _325
REMARK  130  A    between atoms: _325  and  _326
REMARK  131  A    between atoms: _328  and  _330
REMARK  132  A    between atoms: _330  and  _331
REMARK  133  A    between atoms: _330  and  _333
REMARK  134  A    between atoms: _333  and  _334
REMARK  135  A    between atoms: _337  and  _339
REMARK  136  A    between atoms: _339  and  _340
REMARK  137  A    between atoms: _339  and  _342
REMARK  138  A    between atoms: _342  and  _343
REMARK  139  A    between atoms: _346  and  _348
REMARK  140  A    between atoms: _348  and  _349
REMARK  141  A    between atoms: _348  and  _351
REMARK  142  A    between atoms: _351  and  _352
REMARK  143  A    between atoms: _357  and  _359
REMARK  144  A    between atoms: _359  and  _360
REMARK  145  A    between atoms: _359  and  _362
REMARK  146  A    between atoms: _362  and  _363
REMARK  147  A    between atoms: _363  and  _365
REMARK  148  A    between atoms: _365  and  ZN_1038
REMARK  149  A    between atoms: _366  and  _368
REMARK  150  A    between atoms: _368  and  _369
REMARK  151  A    between atoms: _368  and  _371
REMARK  152  A    between atoms: _371  and  _372
REMARK  153  A    between atoms: _374  and  _376
REMARK  154  A    between atoms: _376  and  _377
REMARK  155  A    between atoms: _376  and  _379
REMARK  156  A    between atoms: _379  and  _380
REMARK  157  A    between atoms: _382  and  _384
REMARK  158  A    between atoms: _384  and  _385
REMARK  159  A    between atoms: _384  and  _387
REMARK  160  A    between atoms: _387  and  _388
REMARK  161  A    between atoms: _391  and  _393
REMARK  162  A    between atoms: _393  and  _394
REMARK  163  A    between atoms: _393  and  _396
REMARK  164  A    between atoms: _396  and  _397
REMARK  165  A    between atoms: _397  and  _398
REMARK  166  A    between atoms: _401  and  _403
REMARK  167  A    between atoms: _403  and  _404
REMARK  168  A    between atoms: _403  and  _406
REMARK  169  A    between atoms: _406  and  _407
REMARK  170  A    between atoms: _412  and  _413
REMARK  171  A    between atoms: _415  and  _417
REMARK  172  A    between atoms: _417  and  _418
REMARK  173  A    between atoms: _417  and  _420
REMARK  174  A    between atoms: _420  and  _421
REMARK  175  A    between atoms: _424  and  _426
REMARK  176  A    between atoms: _426  and  _427
REMARK  177  A    between atoms: _426  and  _429
REMARK  178  A    between atoms: _429  and  _430
REMARK  179  A    between atoms: _433  and  _435
REMARK  180  A    between atoms: _435  and  _436
REMARK  181  A    between atoms: _435  and  _438
REMARK  182  A    between atoms: _438  and  _439
REMARK  183  A    between atoms: _439  and  _440
REMARK  184  A    between atoms: _440  and  _441
REMARK  185  A    between atoms: _450  and  _452
REMARK  186  A    between atoms: _452  and  _453
REMARK  187  A    between atoms: _452  and  _455
REMARK  188  A    between atoms: _458  and  _460
REMARK  189  A    between atoms: _460  and  _461
REMARK  190  A    between atoms: _460  and  _463
REMARK  191  A    between atoms: _463  and  _464
REMARK  192  A    between atoms: _467  and  _469
REMARK  193  A    between atoms: _469  and  _470
REMARK  194  A    between atoms: _469  and  _472
REMARK  195  A    between atoms: _474  and  _476
REMARK  196  A    between atoms: _476  and  _477
REMARK  197  A    between atoms: _476  and  _479
REMARK  198  A    between atoms: _479  and  _480
REMARK  199  A    between atoms: _490  and  _492
REMARK  200  A    between atoms: _492  and  _493
REMARK  201  A    between atoms: _492  and  _495
REMARK  202  A    between atoms: _495  and  _496
REMARK  203  A    between atoms: _496  and  _497
REMARK  204  A    between atoms: _497  and  _498
REMARK  205  A    between atoms: _498  and  _499
REMARK  206  A    between atoms: _503  and  _505
REMARK  207  A    between atoms: _505  and  _506
REMARK  208  A    between atoms: _505  and  _508
REMARK  209  A    between atoms: _508  and  _509
REMARK  210  A    between atoms: _512  and  _513
REMARK  211  A    between atoms: _519  and  _520
REMARK  212  A    between atoms: _525  and  _527
REMARK  213  A    between atoms: _527  and  _528
REMARK  214  A    between atoms: _527  and  _530
REMARK  215  A    between atoms: _530  and  _531
REMARK  216  A    between atoms: _531  and  _532
REMARK  217  A    between atoms: _535  and  _537
REMARK  218  A    between atoms: _537  and  _538
REMARK  219  A    between atoms: _537  and  _540
REMARK  220  A    between atoms: _540  and  _541
REMARK  221  A    between atoms: _541  and  _542
REMARK  222  A    between atoms: _542  and  _543
REMARK  223  A    between atoms: _552  and  _554
REMARK  224  A    between atoms: _554  and  _555
REMARK  225  A    between atoms: _554  and  _557
REMARK  226  A    between atoms: _557  and  _558
REMARK  227  A    between atoms: _561  and  _563
REMARK  228  A    between atoms: _563  and  _564
REMARK  229  A    between atoms: _563  and  _566
REMARK  230  A    between atoms: _566  and  _567
REMARK  231  A    between atoms: _569  and  _571
REMARK  232  A    between atoms: _571  and  _572
REMARK  233  A    between atoms: _571  and  _574
REMARK  234  A    between atoms: _574  and  _575
REMARK  235  A    between atoms: _575  and  _576
REMARK  236  A    between atoms: _576  and  _577
REMARK  237  A    between atoms: _577  and  _578
REMARK  238  A    between atoms: _582  and  _584
REMARK  239  A    between atoms: _584  and  _585
REMARK  240  A    between atoms: _584  and  _587
REMARK  241  A    between atoms: _587  and  _588
REMARK  242  A    between atoms: _591  and  _593
REMARK  243  A    between atoms: _593  and  _594
REMARK  244  A    between atoms: _596  and  _598
REMARK  245  A    between atoms: _598  and  _599
REMARK  246  A    between atoms: _598  and  _601
REMARK  247  A    between atoms: _601  and  _602
REMARK  248  A    between atoms: _604  and  _606
REMARK  249  A    between atoms: _606  and  _607
REMARK  250  A    between atoms: _609  and  _611
REMARK  251  A    between atoms: _611  and  _612
REMARK  252  A    between atoms: _611  and  _614
REMARK  253  A    between atoms: _614  and  _615
REMARK  254  A    between atoms: _620  and  _622
REMARK  255  A    between atoms: _622  and  _623
REMARK  256  A    between atoms: _622  and  _625
REMARK  257  A    between atoms: _625  and  _626
REMARK  258  A    between atoms: _629  and  _631
REMARK  259  A    between atoms: _631  and  _632
REMARK  260  A    between atoms: _631  and  _634
REMARK  261  A    between atoms: _634  and  _635
REMARK  262  A    between atoms: _641  and  _643
REMARK  263  A    between atoms: _643  and  _644
REMARK  264  A    between atoms: _643  and  _646
REMARK  265  A    between atoms: _646  and  _647
REMARK  266  A    between atoms: _647  and  _648
REMARK  267  A    between atoms: _651  and  _653
REMARK  268  A    between atoms: _653  and  _654
REMARK  269  A    between atoms: _653  and  _656
REMARK  270  A    between atoms: _656  and  _657
REMARK  271  A    between atoms: _657  and  _658
REMARK  272  A    between atoms: _663  and  _665
REMARK  273  A    between atoms: _665  and  _666
REMARK  274  A    between atoms: _665  and  _668
REMARK  275  A    between atoms: _668  and  _669
REMARK  276  A    between atoms: _669  and  _670
REMARK  277  A    between atoms: _670  and  _671
REMARK  278  A    between atoms: _680  and  _682
REMARK  279  A    between atoms: _682  and  _683
REMARK  280  A    between atoms: _682  and  _685
REMARK  281  A    between atoms: _685  and  _686
REMARK  282  A    between atoms: _686  and  _687
REMARK  283  A    between atoms: _687  and  _688
REMARK  284  A    between atoms: _697  and  _699
REMARK  285  A    between atoms: _699  and  _700
REMARK  286  A    between atoms: _699  and  _702
REMARK  287  A    between atoms: _702  and  _703
REMARK  288  A    between atoms: _708  and  _709
REMARK  289  A    between atoms: _711  and  _713
REMARK  290  A    between atoms: _713  and  _714
REMARK  291  A    between atoms: _713  and  _716
REMARK  292  A    between atoms: _716  and  _717
REMARK  293  A    between atoms: _720  and  _722
REMARK  294  A    between atoms: _722  and  _723
REMARK  295  A    between atoms: _722  and  _725
REMARK  296  A    between atoms: _725  and  _726
REMARK  297  A    between atoms: _726  and  _727
REMARK  298  A    between atoms: _727  and  _728
REMARK  299  A    between atoms: _728  and  _729
REMARK  300  A    between atoms: _733  and  _735
REMARK  301  A    between atoms: _735  and  _736
REMARK  302  A    between atoms: _735  and  _738
REMARK  303  A    between atoms: _738  and  _739
REMARK  304  A    between atoms: _744  and  _746
REMARK  305  A    between atoms: _746  and  _747
REMARK  306  A    between atoms: _746  and  _749
REMARK  307  A    between atoms: _749  and  _750
REMARK  308  A    between atoms: _760  and  _762
REMARK  309  A    between atoms: _762  and  _763
REMARK  310  A    between atoms: _762  and  _765
REMARK  311  A    between atoms: _765  and  _766
REMARK  312  A    between atoms: _766  and  _767
REMARK  313  A    between atoms: _770  and  _772
REMARK  314  A    between atoms: _772  and  _773
REMARK  315  A    between atoms: _772  and  _775
REMARK  316  A    between atoms: _775  and  _776
REMARK  317  A    between atoms: _779  and  _781
REMARK  318  A    between atoms: _781  and  _782
REMARK  319  A    between atoms: _781  and  _784
REMARK  320  A    between atoms: _784  and  _785
REMARK  321  A    between atoms: _790  and  _792
REMARK  322  A    between atoms: _792  and  _793
REMARK  323  A    between atoms: _792  and  _795
REMARK  324  A    between atoms: _795  and  _796
REMARK  325  A    between atoms: _802  and  _804
REMARK  326  A    between atoms: _804  and  _805
REMARK  327  A    between atoms: _804  and  _807
REMARK  328  A    between atoms: _807  and  _808
REMARK  329  A    between atoms: _810  and  _812
REMARK  330  A    between atoms: _812  and  _813
REMARK  331  A    between atoms: _815  and  _817
REMARK  332  A    between atoms: _817  and  _818
REMARK  333  A    between atoms: _817  and  _820
REMARK  334  A    between atoms: _820  and  _821
REMARK  335  A    between atoms: _826  and  _827
REMARK  336  A    between atoms: _829  and  _831
REMARK  337  A    between atoms: _831  and  _832
REMARK  338  A    between atoms: _831  and  _834
REMARK  339  A    between atoms: _834  and  _835
REMARK  340  A    between atoms: _840  and  _841
REMARK  341  A    between atoms: _843  and  _845
REMARK  342  A    between atoms: _845  and  _846
REMARK  343  A    between atoms: _845  and  _848
REMARK  344  A    between atoms: _848  and  _849
REMARK  345  A    between atoms: _853  and  ZN_1037
REMARK  346  A    between atoms: _854  and  _856
REMARK  347  A    between atoms: _856  and  _857
REMARK  348  A    between atoms: _856  and  _859
REMARK  349  A    between atoms: _859  and  _860
REMARK  350  A    between atoms: _860  and  _861
REMARK  351  A    between atoms: _864  and  _866
REMARK  352  A    between atoms: _866  and  _867
REMARK  353  A    between atoms: _866  and  _869
REMARK  354  A    between atoms: _869  and  _870
REMARK  355  A    between atoms: _870  and  _871
REMARK  356  A    between atoms: _871  and  _872
REMARK  357  A    between atoms: _881  and  _883
REMARK  358  A    between atoms: _883  and  _884
REMARK  359  A    between atoms: _883  and  _886
REMARK  360  A    between atoms: _886  and  _887
REMARK  361  A    between atoms: _887  and  _888
REMARK  362  A    between atoms: _888  and  _889
REMARK  363  A    between atoms: _889  and  _890
REMARK  364  A    between atoms: _894  and  _896
REMARK  365  A    between atoms: _896  and  _897
REMARK  366  A    between atoms: _896  and  _899
REMARK  367  A    between atoms: _899  and  _900
REMARK  368  A    between atoms: _905  and  _906
REMARK  369  A    between atoms: _908  and  _910
REMARK  370  A    between atoms: _910  and  _911
REMARK  371  A    between atoms: _910  and  _913
REMARK  372  A    between atoms: _913  and  _914
REMARK  373  A    between atoms: _914  and  _915
REMARK  374  A    between atoms: _915  and  _916
REMARK  375  A    between atoms: _916  and  _917
REMARK  376  A    between atoms: _921  and  _923
REMARK  377  A    between atoms: _923  and  _924
REMARK  378  A    between atoms: _923  and  _926
REMARK  379  A    between atoms: _926  and  _927
REMARK  380  A    between atoms: _932  and  _933
REMARK  381  A    between atoms: _935  and  _937
REMARK  382  A    between atoms: _937  and  _938
REMARK  383  A    between atoms: _937  and  _940
REMARK  384  A    between atoms: _940  and  _941
REMARK  385  A    between atoms: _946  and  _947
REMARK  386  A    between atoms: _949  and  _951
REMARK  387  A    between atoms: _951  and  _952
REMARK  388  A    between atoms: _956  and  _957
REMARK  389  A    between atoms: _962  and  _964
REMARK  390  A    between atoms: _964  and  _965
REMARK  391  A    between atoms: _964  and  _967
REMARK  392  A    between atoms: _967  and  _968
REMARK  393  A    between atoms: _970  and  _972
REMARK  394  A    between atoms: _972  and  _973
REMARK  395  A    between atoms: _972  and  _975
REMARK  396  A    between atoms: _975  and  _976
REMARK  397  A    between atoms: _981  and  _983
REMARK  398  A    between atoms: _983  and  _984
REMARK  399  A    between atoms: _983  and  _986
REMARK  400  A    between atoms: _986  and  _987
REMARK  401  A    between atoms: _987  and  _988
REMARK  402  A    between atoms: _988  and  _989
REMARK  403  A    between atoms: _989  and  _990
REMARK  404  A    between atoms: _994  and  _996
REMARK  405  A    between atoms: _996  and  _997
REMARK  406  A    between atoms: _996  and  _999
REMARK  407  A    between atoms: _999  and  _1000
REMARK  408  A    between atoms: _1005  and  _1006
REMARK  409  A    between atoms: _1008  and  _1010
REMARK  410  A    between atoms: _1010  and  _1011
REMARK  411  A    between atoms: _1014  and  _1016
REMARK  412  A    between atoms: _1016  and  _1017
REMARK  413  A    between atoms: _1019  and  _1021
REMARK  414  A    between atoms: _1021  and  _1022
REMARK  415  A    between atoms: _1021  and  _1024
REMARK  416  A    between atoms: _1024  and  _1025
REMARK  417  A    between atoms: _1025  and  _1026
REMARK  418  A    between atoms: _1029  and  _1031
REMARK  419  A    between atoms: _1031  and  _1032
REMARK  420  A    between atoms: _1031  and  _1034
REMARK  421  A    between atoms: _1034  and  _1035
REMARK                            x       y       z     vdW  Elec       q    Type
REMARK                         _______ _______ _______ _____ _____    ______ ____
ROOT
ATOM      1  O   HOH     1      17.749  40.506  32.157  0.00  0.00    +0.000 OA
ENDROOT
TORSDOF 0
REMARK  Name = ../refined-set-2016/2xef/2xef_pocket.pdb
REMARK  421 active torsions:
REMARK  status: ('A' for Active; 'I' for Inactive)
REMARK    1  A    between atoms: _1  and  _3
REMARK    2  A    between atoms: _3  and  _4
REMARK    3  A    between atoms: _7  and  _9
REMARK    4  A    between atoms: _9  and  _10
REMARK    5  A    between atoms: _9  and  _12
REMARK    6  A    between atoms: _12  and  _13
REMARK    7  A    between atoms: _19  and  _21
REMARK    8  A    between atoms: _21  and  _22
REMARK    9  A    between atoms: _21  and  _24
REMARK   10  A    between atoms: _24  and  _25
REMARK   11  A    between atoms: _30  and  _31
REMARK   12  A    between atoms: _33  and  _35
REMARK   13  A    between atoms: _35  and  _36
REMARK   14  A    between atoms: _38  and  _40
REMARK   15  A    between atoms: _40  and  _41
REMARK   16  A    between atoms: _40  and  _43
REMARK   17  A    between atoms: _43  and  _44
REMARK   18  A    between atoms: _44  and  _45
REMARK   19  A    between atoms: _45  and  _46
REMARK   20  A    between atoms: _46  and  _47
REMARK   21  A    between atoms: _51  and  _53
REMARK   22  A    between atoms: _53  and  _54
REMARK   23  A    between atoms: _53  and  _56
REMARK   24  A    between atoms: _59  and  _61
REMARK   25  A    between atoms: _61  and  _62
REMARK   26  A    between atoms: _61  and  _64
REMARK   27  A    between atoms: _64  and  _65
REMARK   28  A    between atoms: _71  and  _73
REMARK   29  A    between atoms: _73  and  _74
REMARK   30  A    between atoms: _73  and  _76
REMARK   31  A    between atoms: _76  and  _77
REMARK   32  A    between atoms: _77  and  _78
REMARK   33  A    between atoms: _78  and  _79
REMARK   34  A    between atoms: _88  and  _90
REMARK   35  A    between atoms: _90  and  _91
REMARK   36  A    between atoms: _93  and  _95
REMARK   37  A    between atoms: _95  and  _96
REMARK   38  A    between atoms: _95  and  _98
REMARK   39  A    between atoms: _98  and  _99
REMARK   40  A    between atoms: _99  and  _100
REMARK   41  A    between atoms: _100  and  _101
REMARK   42  A    between atoms: _101  and  _102
REMARK   43  A    between atoms: _106  and  _108
REMARK   44  A    between atoms: _108  and  _109
REMARK   45  A    between atoms: _108  and  _111
REMARK   46  A    between atoms: _111  and  _112
REMARK   47  A    between atoms: _117  and  _118
REMARK   48  A    between atoms: _120  and  _122
REMARK   49  A    between atoms: _122  and  _123
REMARK   50  A    between atoms: _122  and  _125
REMARK   51  A    between atoms: _125  and  _126
REMARK   52  A    between atoms: _126  and  _127
REMARK   53  A    between atoms: _132  and  _134
REMARK   54  A    between atoms: _134  and  _135
REMARK   55  A    between atoms: _134  and  _137
REMARK   56  A    between atoms: _137  and  _138
REMARK   57  A    between atoms: _138  and  _139
REMARK   58  A    between atoms: _139  and  _140
REMARK   59  A    between atoms: _149  and  _151
REMARK   60  A    between atoms: _151  and  _152
REMARK   61  A    between atoms: _154  and  _156
REMARK   62  A    between atoms: _156  and  _157
REMARK   63  A    between atoms: _156  and  _159
REMARK   64  A    between atoms: _159  and  _160
REMARK   65  A    between atoms: _165  and  _167
REMARK   66  A    between atoms: _167  and  _168
REMARK   67  A    between atoms: _167  and  _170
REMARK   68  A    between atoms: _170  and  _171
REMARK   69  A    between atoms: _174  and  _176
REMARK   70  A    between atoms: _176  and  _177
REMARK   71  A    between atoms: _176  and  _179
REMARK   72  A    between atoms: _179  and  _180
REMARK   73  A    between atoms: _183  and  _185
REMARK   74  A    between atoms: _185  and  _186
REMARK   75  A    between atoms: _185  and  _188
REMARK   76  A    between atoms: _188  and  _189
REMARK   77  A    between atoms: _194  and  _196
REMARK   78  A    between atoms: _196  and  _197
REMARK   79  A    between atoms: _196  and  _199
REMARK   80  A    between atoms: _199  and  _200
REMARK   81  A    between atoms: _203  and  _205
REMARK   82  A    between atoms: _205  and  _206
REMARK   83  A    between atoms: _205  and  _208
REMARK   84  A    between atoms: _208  and  _209
REMARK   85  A    between atoms: _214  and  _216
REMARK   86  A    between atoms: _216  and  _217
REMARK   87  A    between atoms: _219  and  _221
REMARK   88  A    between atoms: _221  and  _222
REMARK   89  A    between atoms: _224  and  _226
REMARK   90  A    between atoms: _226  and  _227
REMARK   91  A    between atoms: _226  and  _229
REMARK   92  A    between atoms: _229  and  _230
REMARK   93  A    between atoms: _234  and  ZN_1038
REMARK   94  A    between atoms: _235  and  _237
REMARK   95  A    between atoms: _237  and  _238
REMARK   96  A    between atoms: _237  and  _240
REMARK   97  A    between atoms: _240  and  _241
REMARK   98  A    between atoms: _244  and  _246
REMARK   99  A    between atoms: _246  and  _247
REMARK  100  A    between atoms: _246  and  _249
REMARK  101  A    between atoms: _249  and  _250
REMARK  102  A    between atoms: _260  and  _262
REMARK  103  A    between atoms: _262  and  _263
REMARK  104  A    between atoms: _262  and  _265
REMARK  105  A    between atoms: _265  and  _266
REMARK  106  A    between atoms: _269  and  _271
REMARK  107  A    between atoms: _271  and  _272
REMARK  108  A    between atoms: _271  and  _274
REMARK  109  A    between atoms: _274  and  _275
REMARK  110  A    between atoms: _279  and  _280
REMARK  111  A    between atoms: _285  and  _287
REMARK  112  A    between atoms: _287  and  _288
REMARK  113  A    between atoms: _291  and  _293
REMARK  114  A    between atoms: _293  and  _294
REMARK  115  A    between atoms: _293  and  _296
REMARK  116  A    between atoms: _296  and  _297
REMARK  117  A    between atoms: _297  and  _298
REMARK  118  A    between atoms: _301  and  _303
REMARK  119  A    between atoms: _303  and  _304
REMARK  120  A    between atoms: _303  and  _306
REMARK  121  A    between atoms: _306  and  _307
REMARK  122  A    between atoms: _307  and  _308
REMARK  123  A    between atoms: _308  and  _310
REMARK  124  A    between atoms: _310  and  ZN_1037
REMARK  125  A    between atoms: _311  and  _313
REMARK  126  A    between atoms: _313  and  _314
REMARK  127  A    between atoms: _313  and  _316
REMARK  128  A    between atoms: _316  and  _317
REMARK  129  A    between atoms: _323  and  _325
REMARK  130  A    between atoms: _325  and  _326
REMARK  131  A    between atoms: _328  and  _330
REMARK  132  A    between atoms: _330  and  _331
REMARK  133  A    between atoms: _330  and  _333
REMARK  134  A    between atoms: _333  and  _334
REMARK  135  A    between atoms: _337  and  _339
REMARK  136  A    between atoms: _339  and  _340
REMARK  137  A    between atoms: _339  and  _342
REMARK  138  A    between atoms: _342  and  _343
REMARK  139  A    between atoms: _346  and  _348
REMARK  140  A    between atoms: _348  and  _349
REMARK  141  A    between atoms: _348  and  _351
REMARK  142  A    between atoms: _351  and  _352
REMARK  143  A    between atoms: _357  and  _359
REMARK  144  A    between atoms: _359  and  _360
REMARK  145  A    between atoms: _359  and  _362
REMARK  146  A    between atoms: _362  and  _363
REMARK  147  A    between atoms: _363  and  _365
REMARK  148  A    between atoms: _365  and  ZN_1038
REMARK  149  A    between atoms: _366  and  _368
REMARK  150  A    between atoms: _368  and  _369
REMARK  151  A    between atoms: _368  and  _371
REMARK  152  A    between atoms: _371  and  _372
REMARK  153  A    between atoms: _374  and  _376
REMARK  154  A    between atoms: _376  and  _377
REMARK  155  A    between atoms: _376  and  _379
REMARK  156  A    between atoms: _379  and  _380
REMARK  157  A    between atoms: _382  and  _384
REMARK  158  A    between atoms: _384  and  _385
REMARK  159  A    between atoms: _384  and  _387
REMARK  160  A    between atoms: _387  and  _388
REMARK  161  A    between atoms: _391  and  _393
REMARK  162  A    between atoms: _393  and  _394
REMARK  163  A    between atoms: _393  and  _396
REMARK  164  A    between atoms: _396  and  _397
REMARK  165  A    between atoms: _397  and  _398
REMARK  166  A    between atoms: _401  and  _403
REMARK  167  A    between atoms: _403  and  _404
REMARK  168  A    between atoms: _403  and  _406
REMARK  169  A    between atoms: _406  and  _407
REMARK  170  A    between atoms: _412  and  _413
REMARK  171  A    between atoms: _415  and  _417
REMARK  172  A    between atoms: _417  and  _418
REMARK  173  A    between atoms: _417  and  _420
REMARK  174  A    between atoms: _420  and  _421
REMARK  175  A    between atoms: _424  and  _426
REMARK  176  A    between atoms: _426  and  _427
REMARK  177  A    between atoms: _426  and  _429
REMARK  178  A    between atoms: _429  and  _430
REMARK  179  A    between atoms: _433  and  _435
REMARK  180  A    between atoms: _435  and  _436
REMARK  181  A    between atoms: _435  and  _438
REMARK  182  A    between atoms: _438  and  _439
REMARK  183  A    between atoms: _439  and  _440
REMARK  184  A    between atoms: _440  and  _441
REMARK  185  A    between atoms: _450  and  _452
REMARK  186  A    between atoms: _452  and  _453
REMARK  187  A    between atoms: _452  and  _455
REMARK  188  A    between atoms: _458  and  _460
REMARK  189  A    between atoms: _460  and  _461
REMARK  190  A    between atoms: _460  and  _463
REMARK  191  A    between atoms: _463  and  _464
REMARK  192  A    between atoms: _467  and  _469
REMARK  193  A    between atoms: _469  and  _470
REMARK  194  A    between atoms: _469  and  _472
REMARK  195  A    between atoms: _474  and  _476
REMARK  196  A    between atoms: _476  and  _477
REMARK  197  A    between atoms: _476  and  _479
REMARK  198  A    between atoms: _479  and  _480
REMARK  199  A    between atoms: _490  and  _492
REMARK  200  A    between atoms: _492  and  _493
REMARK  201  A    between atoms: _492  and  _495
REMARK  202  A    between atoms: _495  and  _496
REMARK  203  A    between atoms: _496  and  _497
REMARK  204  A    between atoms: _497  and  _498
REMARK  205  A    between atoms: _498  and  _499
REMARK  206  A    between atoms: _503  and  _505
REMARK  207  A    between atoms: _505  and  _506
REMARK  208  A    between atoms: _505  and  _508
REMARK  209  A    between atoms: _508  and  _509
REMARK  210  A    between atoms: _512  and  _513
REMARK  211  A    between atoms: _519  and  _520
REMARK  212  A    between atoms: _525  and  _527
REMARK  213  A    between atoms: _527  and  _528
REMARK  214  A    between atoms: _527  and  _530
REMARK  215  A    between atoms: _530  and  _531
REMARK  216  A    between atoms: _531  and  _532
REMARK  217  A    between atoms: _535  and  _537
REMARK  218  A    between atoms: _537  and  _538
REMARK  219  A    between atoms: _537  and  _540
REMARK  220  A    between atoms: _540  and  _541
REMARK  221  A    between atoms: _541  and  _542
REMARK  222  A    between atoms: _542  and  _543
REMARK  223  A    between atoms: _552  and  _554
REMARK  224  A    between atoms: _554  and  _555
REMARK  225  A    between atoms: _554  and  _557
REMARK  226  A    between atoms: _557  and  _558
REMARK  227  A    between atoms: _561  and  _563
REMARK  228  A    between atoms: _563  and  _564
REMARK  229  A    between atoms: _563  and  _566
REMARK  230  A    between atoms: _566  and  _567
REMARK  231  A    between atoms: _569  and  _571
REMARK  232  A    between atoms: _571  and  _572
REMARK  233  A    between atoms: _571  and  _574
REMARK  234  A    between atoms: _574  and  _575
REMARK  235  A    between atoms: _575  and  _576
REMARK  236  A    between atoms: _576  and  _577
REMARK  237  A    between atoms: _577  and  _578
REMARK  238  A    between atoms: _582  and  _584
REMARK  239  A    between atoms: _584  and  _585
REMARK  240  A    between atoms: _584  and  _587
REMARK  241  A    between atoms: _587  and  _588
REMARK  242  A    between atoms: _591  and  _593
REMARK  243  A    between atoms: _593  and  _594
REMARK  244  A    between atoms: _596  and  _598
REMARK  245  A    between atoms: _598  and  _599
REMARK  246  A    between atoms: _598  and  _601
REMARK  247  A    between atoms: _601  and  _602
REMARK  248  A    between atoms: _604  and  _606
REMARK  249  A    between atoms: _606  and  _607
REMARK  250  A    between atoms: _609  and  _611
REMARK  251  A    between atoms: _611  and  _612
REMARK  252  A    between atoms: _611  and  _614
REMARK  253  A    between atoms: _614  and  _615
REMARK  254  A    between atoms: _620  and  _622
REMARK  255  A    between atoms: _622  and  _623
REMARK  256  A    between atoms: _622  and  _625
REMARK  257  A    between atoms: _625  and  _626
REMARK  258  A    between atoms: _629  and  _631
REMARK  259  A    between atoms: _631  and  _632
REMARK  260  A    between atoms: _631  and  _634
REMARK  261  A    between atoms: _634  and  _635
REMARK  262  A    between atoms: _641  and  _643
REMARK  263  A    between atoms: _643  and  _644
REMARK  264  A    between atoms: _643  and  _646
REMARK  265  A    between atoms: _646  and  _647
REMARK  266  A    between atoms: _647  and  _648
REMARK  267  A    between atoms: _651  and  _653
REMARK  268  A    between atoms: _653  and  _654
REMARK  269  A    between atoms: _653  and  _656
REMARK  270  A    between atoms: _656  and  _657
REMARK  271  A    between atoms: _657  and  _658
REMARK  272  A    between atoms: _663  and  _665
REMARK  273  A    between atoms: _665  and  _666
REMARK  274  A    between atoms: _665  and  _668
REMARK  275  A    between atoms: _668  and  _669
REMARK  276  A    between atoms: _669  and  _670
REMARK  277  A    between atoms: _670  and  _671
REMARK  278  A    between atoms: _680  and  _682
REMARK  279  A    between atoms: _682  and  _683
REMARK  280  A    between atoms: _682  and  _685
REMARK  281  A    between atoms: _685  and  _686
REMARK  282  A    between atoms: _686  and  _687
REMARK  283  A    between atoms: _687  and  _688
REMARK  284  A    between atoms: _697  and  _699
REMARK  285  A    between atoms: _699  and  _700
REMARK  286  A    between atoms: _699  and  _702
REMARK  287  A    between atoms: _702  and  _703
REMARK  288  A    between atoms: _708  and  _709
REMARK  289  A    between atoms: _711  and  _713
REMARK  290  A    between atoms: _713  and  _714
REMARK  291  A    between atoms: _713  and  _716
REMARK  292  A    between atoms: _716  and  _717
REMARK  293  A    between atoms: _720  and  _722
REMARK  294  A    between atoms: _722  and  _723
REMARK  295  A    between atoms: _722  and  _725
REMARK  296  A    between atoms: _725  and  _726
REMARK  297  A    between atoms: _726  and  _727
REMARK  298  A    between atoms: _727  and  _728
REMARK  299  A    between atoms: _728  and  _729
REMARK  300  A    between atoms: _733  and  _735
REMARK  301  A    between atoms: _735  and  _736
REMARK  302  A    between atoms: _735  and  _738
REMARK  303  A    between atoms: _738  and  _739
REMARK  304  A    between atoms: _744  and  _746
REMARK  305  A    between atoms: _746  and  _747
REMARK  306  A    between atoms: _746  and  _749
REMARK  307  A    between atoms: _749  and  _750
REMARK  308  A    between atoms: _760  and  _762
REMARK  309  A    between atoms: _762  and  _763
REMARK  310  A    between atoms: _762  and  _765
REMARK  311  A    between atoms: _765  and  _766
REMARK  312  A    between atoms: _766  and  _767
REMARK  313  A    between atoms: _770  and  _772
REMARK  314  A    between atoms: _772  and  _773
REMARK  315  A    between atoms: _772  and  _775
REMARK  316  A    between atoms: _775  and  _776
REMARK  317  A    between atoms: _779  and  _781
REMARK  318  A    between atoms: _781  and  _782
REMARK  319  A    between atoms: _781  and  _784
REMARK  320  A    between atoms: _784  and  _785
REMARK  321  A    between atoms: _790  and  _792
REMARK  322  A    between atoms: _792  and  _793
REMARK  323  A    between atoms: _792  and  _795
REMARK  324  A    between atoms: _795  and  _796
REMARK  325  A    between atoms: _802  and  _804
REMARK  326  A    between atoms: _804  and  _805
REMARK  327  A    between atoms: _804  and  _807
REMARK  328  A    between atoms: _807  and  _808
REMARK  329  A    between atoms: _810  and  _812
REMARK  330  A    between atoms: _812  and  _813
REMARK  331  A    between atoms: _815  and  _817
REMARK  332  A    between atoms: _817  and  _818
REMARK  333  A    between atoms: _817  and  _820
REMARK  334  A    between atoms: _820  and  _821
REMARK  335  A    between atoms: _826  and  _827
REMARK  336  A    between atoms: _829  and  _831
REMARK  337  A    between atoms: _831  and  _832
REMARK  338  A    between atoms: _831  and  _834
REMARK  339  A    between atoms: _834  and  _835
REMARK  340  A    between atoms: _840  and  _841
REMARK  341  A    between atoms: _843  and  _845
REMARK  342  A    between atoms: _845  and  _846
REMARK  343  A    between atoms: _845  and  _848
REMARK  344  A    between atoms: _848  and  _849
REMARK  345  A    between atoms: _853  and  ZN_1037
REMARK  346  A    between atoms: _854  and  _856
REMARK  347  A    between atoms: _856  and  _857
REMARK  348  A    between atoms: _856  and  _859
REMARK  349  A    between atoms: _859  and  _860
REMARK  350  A    between atoms: _860  and  _861
REMARK  351  A    between atoms: _864  and  _866
REMARK  352  A    between atoms: _866  and  _867
REMARK  353  A    between atoms: _866  and  _869
REMARK  354  A    between atoms: _869  and  _870
REMARK  355  A    between atoms: _870  and  _871
REMARK  356  A    between atoms: _871  and  _872
REMARK  357  A    between atoms: _881  and  _883
REMARK  358  A    between atoms: _883  and  _884
REMARK  359  A    between atoms: _883  and  _886
REMARK  360  A    between atoms: _886  and  _887
REMARK  361  A    between atoms: _887  and  _888
REMARK  362  A    between atoms: _888  and  _889
REMARK  363  A    between atoms: _889  and  _890
REMARK  364  A    between atoms: _894  and  _896
REMARK  365  A    between atoms: _896  and  _897
REMARK  366  A    between atoms: _896  and  _899
REMARK  367  A    between atoms: _899  and  _900
REMARK  368  A    between atoms: _905  and  _906
REMARK  369  A    between atoms: _908  and  _910
REMARK  370  A    between atoms: _910  and  _911
REMARK  371  A    between atoms: _910  and  _913
REMARK  372  A    between atoms: _913  and  _914
REMARK  373  A    between atoms: _914  and  _915
REMARK  374  A    between atoms: _915  and  _916
REMARK  375  A    between atoms: _916  and  _917
REMARK  376  A    between atoms: _921  and  _923
REMARK  377  A    between atoms: _923  and  _924
REMARK  378  A    between atoms: _923  and  _926
REMARK  379  A    between atoms: _926  and  _927
REMARK  380  A    between atoms: _932  and  _933
REMARK  381  A    between atoms: _935  and  _937
REMARK  382  A    between atoms: _937  and  _938
REMARK  383  A    between atoms: _937  and  _940
REMARK  384  A    between atoms: _940  and  _941
REMARK  385  A    between atoms: _946  and  _947
REMARK  386  A    between atoms: _949  and  _951
REMARK  387  A    between atoms: _951  and  _952
REMARK  388  A    between atoms: _956  and  _957
REMARK  389  A    between atoms: _962  and  _964
REMARK  390  A    between atoms: _964  and  _965
REMARK  391  A    between atoms: _964  and  _967
REMARK  392  A    between atoms: _967  and  _968
REMARK  393  A    between atoms: _970  and  _972
REMARK  394  A    between atoms: _972  and  _973
REMARK  395  A    between atoms: _972  and  _975
REMARK  396  A    between atoms: _975  and  _976
REMARK  397  A    between atoms: _981  and  _983
REMARK  398  A    between atoms: _983  and  _984
REMARK  399  A    between atoms: _983  and  _986
REMARK  400  A    between atoms: _986  and  _987
REMARK  401  A    between atoms: _987  and  _988
REMARK  402  A    between atoms: _988  and  _989
REMARK  403  A    between atoms: _989  and  _990
REMARK  404  A    between atoms: _994  and  _996
REMARK  405  A    between atoms: _996  and  _997
REMARK  406  A    between atoms: _996  and  _999
REMARK  407  A    between atoms: _999  and  _1000
REMARK  408  A    between atoms: _1005  and  _1006
REMARK  409  A    between atoms: _1008  and  _1010
REMARK  410  A    between atoms: _1010  and  _1011
REMARK  411  A    between atoms: _1014  and  _1016
REMARK  412  A    between atoms: _1016  and  _1017
REMARK  413  A    between atoms: _1019  and  _1021
REMARK  414  A    between atoms: _1021  and  _1022
REMARK  415  A    between atoms: _1021  and  _1024
REMARK  416  A    between atoms: _1024  and  _1025
REMARK  417  A    between atoms: _1025  and  _1026
REMARK  418  A    between atoms: _1029  and  _1031
REMARK  419  A    between atoms: _1031  and  _1032
REMARK  420  A    between atoms: _1031  and  _1034
REMARK  421  A    between atoms: _1034  and  _1035
REMARK                            x       y       z     vdW  Elec       q    Type
REMARK                         _______ _______ _______ _____ _____    ______ ____
ROOT
ATOM      1  O   HOH     1      29.341  54.402  34.459  0.00  0.00    +0.000 OA
ENDROOT
TORSDOF 0
REMARK  Name = ../refined-set-2016/2xef/2xef_pocket.pdb
REMARK  421 active torsions:
REMARK  status: ('A' for Active; 'I' for Inactive)
REMARK    1  A    between atoms: _1  and  _3
REMARK    2  A    between atoms: _3  and  _4
REMARK    3  A    between atoms: _7  and  _9
REMARK    4  A    between atoms: _9  and  _10
REMARK    5  A    between atoms: _9  and  _12
REMARK    6  A    between atoms: _12  and  _13
REMARK    7  A    between atoms: _19  and  _21
REMARK    8  A    between atoms: _21  and  _22
REMARK    9  A    between atoms: _21  and  _24
REMARK   10  A    between atoms: _24  and  _25
REMARK   11  A    between atoms: _30  and  _31
REMARK   12  A    between atoms: _33  and  _35
REMARK   13  A    between atoms: _35  and  _36
REMARK   14  A    between atoms: _38  and  _40
REMARK   15  A    between atoms: _40  and  _41
REMARK   16  A    between atoms: _40  and  _43
REMARK   17  A    between atoms: _43  and  _44
REMARK   18  A    between atoms: _44  and  _45
REMARK   19  A    between atoms: _45  and  _46
REMARK   20  A    between atoms: _46  and  _47
REMARK   21  A    between atoms: _51  and  _53
REMARK   22  A    between atoms: _53  and  _54
REMARK   23  A    between atoms: _53  and  _56
REMARK   24  A    between atoms: _59  and  _61
REMARK   25  A    between atoms: _61  and  _62
REMARK   26  A    between atoms: _61  and  _64
REMARK   27  A    between atoms: _64  and  _65
REMARK   28  A    between atoms: _71  and  _73
REMARK   29  A    between atoms: _73  and  _74
REMARK   30  A    between atoms: _73  and  _76
REMARK   31  A    between atoms: _76  and  _77
REMARK   32  A    between atoms: _77  and  _78
REMARK   33  A    between atoms: _78  and  _79
REMARK   34  A    between atoms: _88  and  _90
REMARK   35  A    between atoms: _90  and  _91
REMARK   36  A    between atoms: _93  and  _95
REMARK   37  A    between atoms: _95  and  _96
REMARK   38  A    between atoms: _95  and  _98
REMARK   39  A    between atoms: _98  and  _99
REMARK   40  A    between atoms: _99  and  _100
REMARK   41  A    between atoms: _100  and  _101
REMARK   42  A    between atoms: _101  and  _102
REMARK   43  A    between atoms: _106  and  _108
REMARK   44  A    between atoms: _108  and  _109
REMARK   45  A    between atoms: _108  and  _111
REMARK   46  A    between atoms: _111  and  _112
REMARK   47  A    between atoms: _117  and  _118
REMARK   48  A    between atoms: _120  and  _122
REMARK   49  A    between atoms: _122  and  _123
REMARK   50  A    between atoms: _122  and  _125
REMARK   51  A    between atoms: _125  and  _126
REMARK   52  A    between atoms: _126  and  _127
REMARK   53  A    between atoms: _132  and  _134
REMARK   54  A    between atoms: _134  and  _135
REMARK   55  A    between atoms: _134  and  _137
REMARK   56  A    between atoms: _137  and  _138
REMARK   57  A    between atoms: _138  and  _139
REMARK   58  A    between atoms: _139  and  _140
REMARK   59  A    between atoms: _149  and  _151
REMARK   60  A    between atoms: _151  and  _152
REMARK   61  A    between atoms: _154  and  _156
REMARK   62  A    between atoms: _156  and  _157
REMARK   63  A    between atoms: _156  and  _159
REMARK   64  A    between atoms: _159  and  _160
REMARK   65  A    between atoms: _165  and  _167
REMARK   66  A    between atoms: _167  and  _168
REMARK   67  A    between atoms: _167  and  _170
REMARK   68  A    between atoms: _170  and  _171
REMARK   69  A    between atoms: _174  and  _176
REMARK   70  A    between atoms: _176  and  _177
REMARK   71  A    between atoms: _176  and  _179
REMARK   72  A    between atoms: _179  and  _180
REMARK   73  A    between atoms: _183  and  _185
REMARK   74  A    between atoms: _185  and  _186
REMARK   75  A    between atoms: _185  and  _188
REMARK   76  A    between atoms: _188  and  _189
REMARK   77  A    between atoms: _194  and  _196
REMARK   78  A    between atoms: _196  and  _197
REMARK   79  A    between atoms: _196  and  _199
REMARK   80  A    between atoms: _199  and  _200
REMARK   81  A    between atoms: _203  and  _205
REMARK   82  A    between atoms: _205  and  _206
REMARK   83  A    between atoms: _205  and  _208
REMARK   84  A    between atoms: _208  and  _209
REMARK   85  A    between atoms: _214  and  _216
REMARK   86  A    between atoms: _216  and  _217
REMARK   87  A    between atoms: _219  and  _221
REMARK   88  A    between atoms: _221  and  _222
REMARK   89  A    between atoms: _224  and  _226
REMARK   90  A    between atoms: _226  and  _227
REMARK   91  A    between atoms: _226  and  _229
REMARK   92  A    between atoms: _229  and  _230
REMARK   93  A    between atoms: _234  and  ZN_1038
REMARK   94  A    between atoms: _235  and  _237
REMARK   95  A    between atoms: _237  and  _238
REMARK   96  A    between atoms: _237  and  _240
REMARK   97  A    between atoms: _240  and  _241
REMARK   98  A    between atoms: _244  and  _246
REMARK   99  A    between atoms: _246  and  _247
REMARK  100  A    between atoms: _246  and  _249
REMARK  101  A    between atoms: _249  and  _250
REMARK  102  A    between atoms: _260  and  _262
REMARK  103  A    between atoms: _262  and  _263
REMARK  104  A    between atoms: _262  and  _265
REMARK  105  A    between atoms: _265  and  _266
REMARK  106  A    between atoms: _269  and  _271
REMARK  107  A    between atoms: _271  and  _272
REMARK  108  A    between atoms: _271  and  _274
REMARK  109  A    between atoms: _274  and  _275
REMARK  110  A    between atoms: _279  and  _280
REMARK  111  A    between atoms: _285  and  _287
REMARK  112  A    between atoms: _287  and  _288
REMARK  113  A    between atoms: _291  and  _293
REMARK  114  A    between atoms: _293  and  _294
REMARK  115  A    between atoms: _293  and  _296
REMARK  116  A    between atoms: _296  and  _297
REMARK  117  A    between atoms: _297  and  _298
REMARK  118  A    between atoms: _301  and  _303
REMARK  119  A    between atoms: _303  and  _304
REMARK  120  A    between atoms: _303  and  _306
REMARK  121  A    between atoms: _306  and  _307
REMARK  122  A    between atoms: _307  and  _308
REMARK  123  A    between atoms: _308  and  _310
REMARK  124  A    between atoms: _310  and  ZN_1037
REMARK  125  A    between atoms: _311  and  _313
REMARK  126  A    between atoms: _313  and  _314
REMARK  127  A    between atoms: _313  and  _316
REMARK  128  A    between atoms: _316  and  _317
REMARK  129  A    between atoms: _323  and  _325
REMARK  130  A    between atoms: _325  and  _326
REMARK  131  A    between atoms: _328  and  _330
REMARK  132  A    between atoms: _330  and  _331
REMARK  133  A    between atoms: _330  and  _333
REMARK  134  A    between atoms: _333  and  _334
REMARK  135  A    between atoms: _337  and  _339
REMARK  136  A    between atoms: _339  and  _340
REMARK  137  A    between atoms: _339  and  _342
REMARK  138  A    between atoms: _342  and  _343
REMARK  139  A    between atoms: _346  and  _348
REMARK  140  A    between atoms: _348  and  _349
REMARK  141  A    between atoms: _348  and  _351
REMARK  142  A    between atoms: _351  and  _352
REMARK  143  A    between atoms: _357  and  _359
REMARK  144  A    between atoms: _359  and  _360
REMARK  145  A    between atoms: _359  and  _362
REMARK  146  A    between atoms: _362  and  _363
REMARK  147  A    between atoms: _363  and  _365
REMARK  148  A    between atoms: _365  and  ZN_1038
REMARK  149  A    between atoms: _366  and  _368
REMARK  150  A    between atoms: _368  and  _369
REMARK  151  A    between atoms: _368  and  _371
REMARK  152  A    between atoms: _371  and  _372
REMARK  153  A    between atoms: _374  and  _376
REMARK  154  A    between atoms: _376  and  _377
REMARK  155  A    between atoms: _376  and  _379
REMARK  156  A    between atoms: _379  and  _380
REMARK  157  A    between atoms: _382  and  _384
REMARK  158  A    between atoms: _384  and  _385
REMARK  159  A    between atoms: _384  and  _387
REMARK  160  A    between atoms: _387  and  _388
REMARK  161  A    between atoms: _391  and  _393
REMARK  162  A    between atoms: _393  and  _394
REMARK  163  A    between atoms: _393  and  _396
REMARK  164  A    between atoms: _396  and  _397
REMARK  165  A    between atoms: _397  and  _398
REMARK  166  A    between atoms: _401  and  _403
REMARK  167  A    between atoms: _403  and  _404
REMARK  168  A    between atoms: _403  and  _406
REMARK  169  A    between atoms: _406  and  _407
REMARK  170  A    between atoms: _412  and  _413
REMARK  171  A    between atoms: _415  and  _417
REMARK  172  A    between atoms: _417  and  _418
REMARK  173  A    between atoms: _417  and  _420
REMARK  174  A    between atoms: _420  and  _421
REMARK  175  A    between atoms: _424  and  _426
REMARK  176  A    between atoms: _426  and  _427
REMARK  177  A    between atoms: _426  and  _429
REMARK  178  A    between atoms: _429  and  _430
REMARK  179  A    between atoms: _433  and  _435
REMARK  180  A    between atoms: _435  and  _436
REMARK  181  A    between atoms: _435  and  _438
REMARK  182  A    between atoms: _438  and  _439
REMARK  183  A    between atoms: _439  and  _440
REMARK  184  A    between atoms: _440  and  _441
REMARK  185  A    between atoms: _450  and  _452
REMARK  186  A    between atoms: _452  and  _453
REMARK  187  A    between atoms: _452  and  _455
REMARK  188  A    between atoms: _458  and  _460
REMARK  189  A    between atoms: _460  and  _461
REMARK  190  A    between atoms: _460  and  _463
REMARK  191  A    between atoms: _463  and  _464
REMARK  192  A    between atoms: _467  and  _469
REMARK  193  A    between atoms: _469  and  _470
REMARK  194  A    between atoms: _469  and  _472
REMARK  195  A    between atoms: _474  and  _476
REMARK  196  A    between atoms: _476  and  _477
REMARK  197  A    between atoms: _476  and  _479
REMARK  198  A    between atoms: _479  and  _480
REMARK  199  A    between atoms: _490  and  _492
REMARK  200  A    between atoms: _492  and  _493
REMARK  201  A    between atoms: _492  and  _495
REMARK  202  A    between atoms: _495  and  _496
REMARK  203  A    between atoms: _496  and  _497
REMARK  204  A    between atoms: _497  and  _498
REMARK  205  A    between atoms: _498  and  _499
REMARK  206  A    between atoms: _503  and  _505
REMARK  207  A    between atoms: _505  and  _506
REMARK  208  A    between atoms: _505  and  _508
REMARK  209  A    between atoms: _508  and  _509
REMARK  210  A    between atoms: _512  and  _513
REMARK  211  A    between atoms: _519  and  _520
REMARK  212  A    between atoms: _525  and  _527
REMARK  213  A    between atoms: _527  and  _528
REMARK  214  A    between atoms: _527  and  _530
REMARK  215  A    between atoms: _530  and  _531
REMARK  216  A    between atoms: _531  and  _532
REMARK  217  A    between atoms: _535  and  _537
REMARK  218  A    between atoms: _537  and  _538
REMARK  219  A    between atoms: _537  and  _540
REMARK  220  A    between atoms: _540  and  _541
REMARK  221  A    between atoms: _541  and  _542
REMARK  222  A    between atoms: _542  and  _543
REMARK  223  A    between atoms: _552  and  _554
REMARK  224  A    between atoms: _554  and  _555
REMARK  225  A    between atoms: _554  and  _557
REMARK  226  A    between atoms: _557  and  _558
REMARK  227  A    between atoms: _561  and  _563
REMARK  228  A    between atoms: _563  and  _564
REMARK  229  A    between atoms: _563  and  _566
REMARK  230  A    between atoms: _566  and  _567
REMARK  231  A    between atoms: _569  and  _571
REMARK  232  A    between atoms: _571  and  _572
REMARK  233  A    between atoms: _571  and  _574
REMARK  234  A    between atoms: _574  and  _575
REMARK  235  A    between atoms: _575  and  _576
REMARK  236  A    between atoms: _576  and  _577
REMARK  237  A    between atoms: _577  and  _578
REMARK  238  A    between atoms: _582  and  _584
REMARK  239  A    between atoms: _584  and  _585
REMARK  240  A    between atoms: _584  and  _587
REMARK  241  A    between atoms: _587  and  _588
REMARK  242  A    between atoms: _591  and  _593
REMARK  243  A    between atoms: _593  and  _594
REMARK  244  A    between atoms: _596  and  _598
REMARK  245  A    between atoms: _598  and  _599
REMARK  246  A    between atoms: _598  and  _601
REMARK  247  A    between atoms: _601  and  _602
REMARK  248  A    between atoms: _604  and  _606
REMARK  249  A    between atoms: _606  and  _607
REMARK  250  A    between atoms: _609  and  _611
REMARK  251  A    between atoms: _611  and  _612
REMARK  252  A    between atoms: _611  and  _614
REMARK  253  A    between atoms: _614  and  _615
REMARK  254  A    between atoms: _620  and  _622
REMARK  255  A    between atoms: _622  and  _623
REMARK  256  A    between atoms: _622  and  _625
REMARK  257  A    between atoms: _625  and  _626
REMARK  258  A    between atoms: _629  and  _631
REMARK  259  A    between atoms: _631  and  _632
REMARK  260  A    between atoms: _631  and  _634
REMARK  261  A    between atoms: _634  and  _635
REMARK  262  A    between atoms: _641  and  _643
REMARK  263  A    between atoms: _643  and  _644
REMARK  264  A    between atoms: _643  and  _646
REMARK  265  A    between atoms: _646  and  _647
REMARK  266  A    between atoms: _647  and  _648
REMARK  267  A    between atoms: _651  and  _653
REMARK  268  A    between atoms: _653  and  _654
REMARK  269  A    between atoms: _653  and  _656
REMARK  270  A    between atoms: _656  and  _657
REMARK  271  A    between atoms: _657  and  _658
REMARK  272  A    between atoms: _663  and  _665
REMARK  273  A    between atoms: _665  and  _666
REMARK  274  A    between atoms: _665  and  _668
REMARK  275  A    between atoms: _668  and  _669
REMARK  276  A    between atoms: _669  and  _670
REMARK  277  A    between atoms: _670  and  _671
REMARK  278  A    between atoms: _680  and  _682
REMARK  279  A    between atoms: _682  and  _683
REMARK  280  A    between atoms: _682  and  _685
REMARK  281  A    between atoms: _685  and  _686
REMARK  282  A    between atoms: _686  and  _687
REMARK  283  A    between atoms: _687  and  _688
REMARK  284  A    between atoms: _697  and  _699
REMARK  285  A    between atoms: _699  and  _700
REMARK  286  A    between atoms: _699  and  _702
REMARK  287  A    between atoms: _702  and  _703
REMARK  288  A    between atoms: _708  and  _709
REMARK  289  A    between atoms: _711  and  _713
REMARK  290  A    between atoms: _713  and  _714
REMARK  291  A    between atoms: _713  and  _716
REMARK  292  A    between atoms: _716  and  _717
REMARK  293  A    between atoms: _720  and  _722
REMARK  294  A    between atoms: _722  and  _723
REMARK  295  A    between atoms: _722  and  _725
REMARK  296  A    between atoms: _725  and  _726
REMARK  297  A    between atoms: _726  and  _727
REMARK  298  A    between atoms: _727  and  _728
REMARK  299  A    between atoms: _728  and  _729
REMARK  300  A    between atoms: _733  and  _735
REMARK  301  A    between atoms: _735  and  _736
REMARK  302  A    between atoms: _735  and  _738
REMARK  303  A    between atoms: _738  and  _739
REMARK  304  A    between atoms: _744  and  _746
REMARK  305  A    between atoms: _746  and  _747
REMARK  306  A    between atoms: _746  and  _749
REMARK  307  A    between atoms: _749  and  _750
REMARK  308  A    between atoms: _760  and  _762
REMARK  309  A    between atoms: _762  and  _763
REMARK  310  A    between atoms: _762  and  _765
REMARK  311  A    between atoms: _765  and  _766
REMARK  312  A    between atoms: _766  and  _767
REMARK  313  A    between atoms: _770  and  _772
REMARK  314  A    between atoms: _772  and  _773
REMARK  315  A    between atoms: _772  and  _775
REMARK  316  A    between atoms: _775  and  _776
REMARK  317  A    between atoms: _779  and  _781
REMARK  318  A    between atoms: _781  and  _782
REMARK  319  A    between atoms: _781  and  _784
REMARK  320  A    between atoms: _784  and  _785
REMARK  321  A    between atoms: _790  and  _792
REMARK  322  A    between atoms: _792  and  _793
REMARK  323  A    between atoms: _792  and  _795
REMARK  324  A    between atoms: _795  and  _796
REMARK  325  A    between atoms: _802  and  _804
REMARK  326  A    between atoms: _804  and  _805
REMARK  327  A    between atoms: _804  and  _807
REMARK  328  A    between atoms: _807  and  _808
REMARK  329  A    between atoms: _810  and  _812
REMARK  330  A    between atoms: _812  and  _813
REMARK  331  A    between atoms: _815  and  _817
REMARK  332  A    between atoms: _817  and  _818
REMARK  333  A    between atoms: _817  and  _820
REMARK  334  A    between atoms: _820  and  _821
REMARK  335  A    between atoms: _826  and  _827
REMARK  336  A    between atoms: _829  and  _831
REMARK  337  A    between atoms: _831  and  _832
REMARK  338  A    between atoms: _831  and  _834
REMARK  339  A    between atoms: _834  and  _835
REMARK  340  A    between atoms: _840  and  _841
REMARK  341  A    between atoms: _843  and  _845
REMARK  342  A    between atoms: _845  and  _846
REMARK  343  A    between atoms: _845  and  _848
REMARK  344  A    between atoms: _848  and  _849
REMARK  345  A    between atoms: _853  and  ZN_1037
REMARK  346  A    between atoms: _854  and  _856
REMARK  347  A    between atoms: _856  and  _857
REMARK  348  A    between atoms: _856  and  _859
REMARK  349  A    between atoms: _859  and  _860
REMARK  350  A    between atoms: _860  and  _861
REMARK  351  A    between atoms: _864  and  _866
REMARK  352  A    between atoms: _866  and  _867
REMARK  353  A    between atoms: _866  and  _869
REMARK  354  A    between atoms: _869  and  _870
REMARK  355  A    between atoms: _870  and  _871
REMARK  356  A    between atoms: _871  and  _872
REMARK  357  A    between atoms: _881  and  _883
REMARK  358  A    between atoms: _883  and  _884
REMARK  359  A    between atoms: _883  and  _886
REMARK  360  A    between atoms: _886  and  _887
REMARK  361  A    between atoms: _887  and  _888
REMARK  362  A    between atoms: _888  and  _889
REMARK  363  A    between atoms: _889  and  _890
REMARK  364  A    between atoms: _894  and  _896
REMARK  365  A    between atoms: _896  and  _897
REMARK  366  A    between atoms: _896  and  _899
REMARK  367  A    between atoms: _899  and  _900
REMARK  368  A    between atoms: _905  and  _906
REMARK  369  A    between atoms: _908  and  _910
REMARK  370  A    between atoms: _910  and  _911
REMARK  371  A    between atoms: _910  and  _913
REMARK  372  A    between atoms: _913  and  _914
REMARK  373  A    between atoms: _914  and  _915
REMARK  374  A    between atoms: _915  and  _916
REMARK  375  A    between atoms: _916  and  _917
REMARK  376  A    between atoms: _921  and  _923
REMARK  377  A    between atoms: _923  and  _924
REMARK  378  A    between atoms: _923  and  _926
REMARK  379  A    between atoms: _926  and  _927
REMARK  380  A    between atoms: _932  and  _933
REMARK  381  A    between atoms: _935  and  _937
REMARK  382  A    between atoms: _937  and  _938
REMARK  383  A    between atoms: _937  and  _940
REMARK  384  A    between atoms: _940  and  _941
REMARK  385  A    between atoms: _946  and  _947
REMARK  386  A    between atoms: _949  and  _951
REMARK  387  A    between atoms: _951  and  _952
REMARK  388  A    between atoms: _956  and  _957
REMARK  389  A    between atoms: _962  and  _964
REMARK  390  A    between atoms: _964  and  _965
REMARK  391  A    between atoms: _964  and  _967
REMARK  392  A    between atoms: _967  and  _968
REMARK  393  A    between atoms: _970  and  _972
REMARK  394  A    between atoms: _972  and  _973
REMARK  395  A    between atoms: _972  and  _975
REMARK  396  A    between atoms: _975  and  _976
REMARK  397  A    between atoms: _981  and  _983
REMARK  398  A    between atoms: _983  and  _984
REMARK  399  A    between atoms: _983  and  _986
REMARK  400  A    between atoms: _986  and  _987
REMARK  401  A    between atoms: _987  and  _988
REMARK  402  A    between atoms: _988  and  _989
REMARK  403  A    between atoms: _989  and  _990
REMARK  404  A    between atoms: _994  and  _996
REMARK  405  A    between atoms: _996  and  _997
REMARK  406  A    between atoms: _996  and  _999
REMARK  407  A    between atoms: _999  and  _1000
REMARK  408  A    between atoms: _1005  and  _1006
REMARK  409  A    between atoms: _1008  and  _1010
REMARK  410  A    between atoms: _1010  and  _1011
REMARK  411  A    between atoms: _1014  and  _1016
REMARK  412  A    between atoms: _1016  and  _1017
REMARK  413  A    between atoms: _1019  and  _1021
REMARK  414  A    between atoms: _1021  and  _1022
REMARK  415  A    between atoms: _1021  and  _1024
REMARK  416  A    between atoms: _1024  and  _1025
REMARK  417  A    between atoms: _1025  and  _1026
REMARK  418  A    between atoms: _1029  and  _1031
REMARK  419  A    between atoms: _1031  and  _1032
REMARK  420  A    between atoms: _1031  and  _1034
REMARK  421  A    between atoms: _1034  and  _1035
REMARK                            x       y       z     vdW  Elec       q    Type
REMARK                         _______ _______ _______ _____ _____    ______ ____
ROOT
ATOM      1  O   HOH     1      28.181  53.423  36.932  0.00  0.00    +0.000 OA
ENDROOT
TORSDOF 0
REMARK  Name = ../refined-set-2016/2xef/2xef_pocket.pdb
REMARK  421 active torsions:
REMARK  status: ('A' for Active; 'I' for Inactive)
REMARK    1  A    between atoms: _1  and  _3
REMARK    2  A    between atoms: _3  and  _4
REMARK    3  A    between atoms: _7  and  _9
REMARK    4  A    between atoms: _9  and  _10
REMARK    5  A    between atoms: _9  and  _12
REMARK    6  A    between atoms: _12  and  _13
REMARK    7  A    between atoms: _19  and  _21
REMARK    8  A    between atoms: _21  and  _22
REMARK    9  A    between atoms: _21  and  _24
REMARK   10  A    between atoms: _24  and  _25
REMARK   11  A    between atoms: _30  and  _31
REMARK   12  A    between atoms: _33  and  _35
REMARK   13  A    between atoms: _35  and  _36
REMARK   14  A    between atoms: _38  and  _40
REMARK   15  A    between atoms: _40  and  _41
REMARK   16  A    between atoms: _40  and  _43
REMARK   17  A    between atoms: _43  and  _44
REMARK   18  A    between atoms: _44  and  _45
REMARK   19  A    between atoms: _45  and  _46
REMARK   20  A    between atoms: _46  and  _47
REMARK   21  A    between atoms: _51  and  _53
REMARK   22  A    between atoms: _53  and  _54
REMARK   23  A    between atoms: _53  and  _56
REMARK   24  A    between atoms: _59  and  _61
REMARK   25  A    between atoms: _61  and  _62
REMARK   26  A    between atoms: _61  and  _64
REMARK   27  A    between atoms: _64  and  _65
REMARK   28  A    between atoms: _71  and  _73
REMARK   29  A    between atoms: _73  and  _74
REMARK   30  A    between atoms: _73  and  _76
REMARK   31  A    between atoms: _76  and  _77
REMARK   32  A    between atoms: _77  and  _78
REMARK   33  A    between atoms: _78  and  _79
REMARK   34  A    between atoms: _88  and  _90
REMARK   35  A    between atoms: _90  and  _91
REMARK   36  A    between atoms: _93  and  _95
REMARK   37  A    between atoms: _95  and  _96
REMARK   38  A    between atoms: _95  and  _98
REMARK   39  A    between atoms: _98  and  _99
REMARK   40  A    between atoms: _99  and  _100
REMARK   41  A    between atoms: _100  and  _101
REMARK   42  A    between atoms: _101  and  _102
REMARK   43  A    between atoms: _106  and  _108
REMARK   44  A    between atoms: _108  and  _109
REMARK   45  A    between atoms: _108  and  _111
REMARK   46  A    between atoms: _111  and  _112
REMARK   47  A    between atoms: _117  and  _118
REMARK   48  A    between atoms: _120  and  _122
REMARK   49  A    between atoms: _122  and  _123
REMARK   50  A    between atoms: _122  and  _125
REMARK   51  A    between atoms: _125  and  _126
REMARK   52  A    between atoms: _126  and  _127
REMARK   53  A    between atoms: _132  and  _134
REMARK   54  A    between atoms: _134  and  _135
REMARK   55  A    between atoms: _134  and  _137
REMARK   56  A    between atoms: _137  and  _138
REMARK   57  A    between atoms: _138  and  _139
REMARK   58  A    between atoms: _139  and  _140
REMARK   59  A    between atoms: _149  and  _151
REMARK   60  A    between atoms: _151  and  _152
REMARK   61  A    between atoms: _154  and  _156
REMARK   62  A    between atoms: _156  and  _157
REMARK   63  A    between atoms: _156  and  _159
REMARK   64  A    between atoms: _159  and  _160
REMARK   65  A    between atoms: _165  and  _167
REMARK   66  A    between atoms: _167  and  _168
REMARK   67  A    between atoms: _167  and  _170
REMARK   68  A    between atoms: _170  and  _171
REMARK   69  A    between atoms: _174  and  _176
REMARK   70  A    between atoms: _176  and  _177
REMARK   71  A    between atoms: _176  and  _179
REMARK   72  A    between atoms: _179  and  _180
REMARK   73  A    between atoms: _183  and  _185
REMARK   74  A    between atoms: _185  and  _186
REMARK   75  A    between atoms: _185  and  _188
REMARK   76  A    between atoms: _188  and  _189
REMARK   77  A    between atoms: _194  and  _196
REMARK   78  A    between atoms: _196  and  _197
REMARK   79  A    between atoms: _196  and  _199
REMARK   80  A    between atoms: _199  and  _200
REMARK   81  A    between atoms: _203  and  _205
REMARK   82  A    between atoms: _205  and  _206
REMARK   83  A    between atoms: _205  and  _208
REMARK   84  A    between atoms: _208  and  _209
REMARK   85  A    between atoms: _214  and  _216
REMARK   86  A    between atoms: _216  and  _217
REMARK   87  A    between atoms: _219  and  _221
REMARK   88  A    between atoms: _221  and  _222
REMARK   89  A    between atoms: _224  and  _226
REMARK   90  A    between atoms: _226  and  _227
REMARK   91  A    between atoms: _226  and  _229
REMARK   92  A    between atoms: _229  and  _230
REMARK   93  A    between atoms: _234  and  ZN_1038
REMARK   94  A    between atoms: _235  and  _237
REMARK   95  A    between atoms: _237  and  _238
REMARK   96  A    between atoms: _237  and  _240
REMARK   97  A    between atoms: _240  and  _241
REMARK   98  A    between atoms: _244  and  _246
REMARK   99  A    between atoms: _246  and  _247
REMARK  100  A    between atoms: _246  and  _249
REMARK  101  A    between atoms: _249  and  _250
REMARK  102  A    between atoms: _260  and  _262
REMARK  103  A    between atoms: _262  and  _263
REMARK  104  A    between atoms: _262  and  _265
REMARK  105  A    between atoms: _265  and  _266
REMARK  106  A    between atoms: _269  and  _271
REMARK  107  A    between atoms: _271  and  _272
REMARK  108  A    between atoms: _271  and  _274
REMARK  109  A    between atoms: _274  and  _275
REMARK  110  A    between atoms: _279  and  _280
REMARK  111  A    between atoms: _285  and  _287
REMARK  112  A    between atoms: _287  and  _288
REMARK  113  A    between atoms: _291  and  _293
REMARK  114  A    between atoms: _293  and  _294
REMARK  115  A    between atoms: _293  and  _296
REMARK  116  A    between atoms: _296  and  _297
REMARK  117  A    between atoms: _297  and  _298
REMARK  118  A    between atoms: _301  and  _303
REMARK  119  A    between atoms: _303  and  _304
REMARK  120  A    between atoms: _303  and  _306
REMARK  121  A    between atoms: _306  and  _307
REMARK  122  A    between atoms: _307  and  _308
REMARK  123  A    between atoms: _308  and  _310
REMARK  124  A    between atoms: _310  and  ZN_1037
REMARK  125  A    between atoms: _311  and  _313
REMARK  126  A    between atoms: _313  and  _314
REMARK  127  A    between atoms: _313  and  _316
REMARK  128  A    between atoms: _316  and  _317
REMARK  129  A    between atoms: _323  and  _325
REMARK  130  A    between atoms: _325  and  _326
REMARK  131  A    between atoms: _328  and  _330
REMARK  132  A    between atoms: _330  and  _331
REMARK  133  A    between atoms: _330  and  _333
REMARK  134  A    between atoms: _333  and  _334
REMARK  135  A    between atoms: _337  and  _339
REMARK  136  A    between atoms: _339  and  _340
REMARK  137  A    between atoms: _339  and  _342
REMARK  138  A    between atoms: _342  and  _343
REMARK  139  A    between atoms: _346  and  _348
REMARK  140  A    between atoms: _348  and  _349
REMARK  141  A    between atoms: _348  and  _351
REMARK  142  A    between atoms: _351  and  _352
REMARK  143  A    between atoms: _357  and  _359
REMARK  144  A    between atoms: _359  and  _360
REMARK  145  A    between atoms: _359  and  _362
REMARK  146  A    between atoms: _362  and  _363
REMARK  147  A    between atoms: _363  and  _365
REMARK  148  A    between atoms: _365  and  ZN_1038
REMARK  149  A    between atoms: _366  and  _368
REMARK  150  A    between atoms: _368  and  _369
REMARK  151  A    between atoms: _368  and  _371
REMARK  152  A    between atoms: _371  and  _372
REMARK  153  A    between atoms: _374  and  _376
REMARK  154  A    between atoms: _376  and  _377
REMARK  155  A    between atoms: _376  and  _379
REMARK  156  A    between atoms: _379  and  _380
REMARK  157  A    between atoms: _382  and  _384
REMARK  158  A    between atoms: _384  and  _385
REMARK  159  A    between atoms: _384  and  _387
REMARK  160  A    between atoms: _387  and  _388
REMARK  161  A    between atoms: _391  and  _393
REMARK  162  A    between atoms: _393  and  _394
REMARK  163  A    between atoms: _393  and  _396
REMARK  164  A    between atoms: _396  and  _397
REMARK  165  A    between atoms: _397  and  _398
REMARK  166  A    between atoms: _401  and  _403
REMARK  167  A    between atoms: _403  and  _404
REMARK  168  A    between atoms: _403  and  _406
REMARK  169  A    between atoms: _406  and  _407
REMARK  170  A    between atoms: _412  and  _413
REMARK  171  A    between atoms: _415  and  _417
REMARK  172  A    between atoms: _417  and  _418
REMARK  173  A    between atoms: _417  and  _420
REMARK  174  A    between atoms: _420  and  _421
REMARK  175  A    between atoms: _424  and  _426
REMARK  176  A    between atoms: _426  and  _427
REMARK  177  A    between atoms: _426  and  _429
REMARK  178  A    between atoms: _429  and  _430
REMARK  179  A    between atoms: _433  and  _435
REMARK  180  A    between atoms: _435  and  _436
REMARK  181  A    between atoms: _435  and  _438
REMARK  182  A    between atoms: _438  and  _439
REMARK  183  A    between atoms: _439  and  _440
REMARK  184  A    between atoms: _440  and  _441
REMARK  185  A    between atoms: _450  and  _452
REMARK  186  A    between atoms: _452  and  _453
REMARK  187  A    between atoms: _452  and  _455
REMARK  188  A    between atoms: _458  and  _460
REMARK  189  A    between atoms: _460  and  _461
REMARK  190  A    between atoms: _460  and  _463
REMARK  191  A    between atoms: _463  and  _464
REMARK  192  A    between atoms: _467  and  _469
REMARK  193  A    between atoms: _469  and  _470
REMARK  194  A    between atoms: _469  and  _472
REMARK  195  A    between atoms: _474  and  _476
REMARK  196  A    between atoms: _476  and  _477
REMARK  197  A    between atoms: _476  and  _479
REMARK  198  A    between atoms: _479  and  _480
REMARK  199  A    between atoms: _490  and  _492
REMARK  200  A    between atoms: _492  and  _493
REMARK  201  A    between atoms: _492  and  _495
REMARK  202  A    between atoms: _495  and  _496
REMARK  203  A    between atoms: _496  and  _497
REMARK  204  A    between atoms: _497  and  _498
REMARK  205  A    between atoms: _498  and  _499
REMARK  206  A    between atoms: _503  and  _505
REMARK  207  A    between atoms: _505  and  _506
REMARK  208  A    between atoms: _505  and  _508
REMARK  209  A    between atoms: _508  and  _509
REMARK  210  A    between atoms: _512  and  _513
REMARK  211  A    between atoms: _519  and  _520
REMARK  212  A    between atoms: _525  and  _527
REMARK  213  A    between atoms: _527  and  _528
REMARK  214  A    between atoms: _527  and  _530
REMARK  215  A    between atoms: _530  and  _531
REMARK  216  A    between atoms: _531  and  _532
REMARK  217  A    between atoms: _535  and  _537
REMARK  218  A    between atoms: _537  and  _538
REMARK  219  A    between atoms: _537  and  _540
REMARK  220  A    between atoms: _540  and  _541
REMARK  221  A    between atoms: _541  and  _542
REMARK  222  A    between atoms: _542  and  _543
REMARK  223  A    between atoms: _552  and  _554
REMARK  224  A    between atoms: _554  and  _555
REMARK  225  A    between atoms: _554  and  _557
REMARK  226  A    between atoms: _557  and  _558
REMARK  227  A    between atoms: _561  and  _563
REMARK  228  A    between atoms: _563  and  _564
REMARK  229  A    between atoms: _563  and  _566
REMARK  230  A    between atoms: _566  and  _567
REMARK  231  A    between atoms: _569  and  _571
REMARK  232  A    between atoms: _571  and  _572
REMARK  233  A    between atoms: _571  and  _574
REMARK  234  A    between atoms: _574  and  _575
REMARK  235  A    between atoms: _575  and  _576
REMARK  236  A    between atoms: _576  and  _577
REMARK  237  A    between atoms: _577  and  _578
REMARK  238  A    between atoms: _582  and  _584
REMARK  239  A    between atoms: _584  and  _585
REMARK  240  A    between atoms: _584  and  _587
REMARK  241  A    between atoms: _587  and  _588
REMARK  242  A    between atoms: _591  and  _593
REMARK  243  A    between atoms: _593  and  _594
REMARK  244  A    between atoms: _596  and  _598
REMARK  245  A    between atoms: _598  and  _599
REMARK  246  A    between atoms: _598  and  _601
REMARK  247  A    between atoms: _601  and  _602
REMARK  248  A    between atoms: _604  and  _606
REMARK  249  A    between atoms: _606  and  _607
REMARK  250  A    between atoms: _609  and  _611
REMARK  251  A    between atoms: _611  and  _612
REMARK  252  A    between atoms: _611  and  _614
REMARK  253  A    between atoms: _614  and  _615
REMARK  254  A    between atoms: _620  and  _622
REMARK  255  A    between atoms: _622  and  _623
REMARK  256  A    between atoms: _622  and  _625
REMARK  257  A    between atoms: _625  and  _626
REMARK  258  A    between atoms: _629  and  _631
REMARK  259  A    between atoms: _631  and  _632
REMARK  260  A    between atoms: _631  and  _634
REMARK  261  A    between atoms: _634  and  _635
REMARK  262  A    between atoms: _641  and  _643
REMARK  263  A    between atoms: _643  and  _644
REMARK  264  A    between atoms: _643  and  _646
REMARK  265  A    between atoms: _646  and  _647
REMARK  266  A    between atoms: _647  and  _648
REMARK  267  A    between atoms: _651  and  _653
REMARK  268  A    between atoms: _653  and  _654
REMARK  269  A    between atoms: _653  and  _656
REMARK  270  A    between atoms: _656  and  _657
REMARK  271  A    between atoms: _657  and  _658
REMARK  272  A    between atoms: _663  and  _665
REMARK  273  A    between atoms: _665  and  _666
REMARK  274  A    between atoms: _665  and  _668
REMARK  275  A    between atoms: _668  and  _669
REMARK  276  A    between atoms: _669  and  _670
REMARK  277  A    between atoms: _670  and  _671
REMARK  278  A    between atoms: _680  and  _682
REMARK  279  A    between atoms: _682  and  _683
REMARK  280  A    between atoms: _682  and  _685
REMARK  281  A    between atoms: _685  and  _686
REMARK  282  A    between atoms: _686  and  _687
REMARK  283  A    between atoms: _687  and  _688
REMARK  284  A    between atoms: _697  and  _699
REMARK  285  A    between atoms: _699  and  _700
REMARK  286  A    between atoms: _699  and  _702
REMARK  287  A    between atoms: _702  and  _703
REMARK  288  A    between atoms: _708  and  _709
REMARK  289  A    between atoms: _711  and  _713
REMARK  290  A    between atoms: _713  and  _714
REMARK  291  A    between atoms: _713  and  _716
REMARK  292  A    between atoms: _716  and  _717
REMARK  293  A    between atoms: _720  and  _722
REMARK  294  A    between atoms: _722  and  _723
REMARK  295  A    between atoms: _722  and  _725
REMARK  296  A    between atoms: _725  and  _726
REMARK  297  A    between atoms: _726  and  _727
REMARK  298  A    between atoms: _727  and  _728
REMARK  299  A    between atoms: _728  and  _729
REMARK  300  A    between atoms: _733  and  _735
REMARK  301  A    between atoms: _735  and  _736
REMARK  302  A    between atoms: _735  and  _738
REMARK  303  A    between atoms: _738  and  _739
REMARK  304  A    between atoms: _744  and  _746
REMARK  305  A    between atoms: _746  and  _747
REMARK  306  A    between atoms: _746  and  _749
REMARK  307  A    between atoms: _749  and  _750
REMARK  308  A    between atoms: _760  and  _762
REMARK  309  A    between atoms: _762  and  _763
REMARK  310  A    between atoms: _762  and  _765
REMARK  311  A    between atoms: _765  and  _766
REMARK  312  A    between atoms: _766  and  _767
REMARK  313  A    between atoms: _770  and  _772
REMARK  314  A    between atoms: _772  and  _773
REMARK  315  A    between atoms: _772  and  _775
REMARK  316  A    between atoms: _775  and  _776
REMARK  317  A    between atoms: _779  and  _781
REMARK  318  A    between atoms: _781  and  _782
REMARK  319  A    between atoms: _781  and  _784
REMARK  320  A    between atoms: _784  and  _785
REMARK  321  A    between atoms: _790  and  _792
REMARK  322  A    between atoms: _792  and  _793
REMARK  323  A    between atoms: _792  and  _795
REMARK  324  A    between atoms: _795  and  _796
REMARK  325  A    between atoms: _802  and  _804
REMARK  326  A    between atoms: _804  and  _805
REMARK  327  A    between atoms: _804  and  _807
REMARK  328  A    between atoms: _807  and  _808
REMARK  329  A    between atoms: _810  and  _812
REMARK  330  A    between atoms: _812  and  _813
REMARK  331  A    between atoms: _815  and  _817
REMARK  332  A    between atoms: _817  and  _818
REMARK  333  A    between atoms: _817  and  _820
REMARK  334  A    between atoms: _820  and  _821
REMARK  335  A    between atoms: _826  and  _827
REMARK  336  A    between atoms: _829  and  _831
REMARK  337  A    between atoms: _831  and  _832
REMARK  338  A    between atoms: _831  and  _834
REMARK  339  A    between atoms: _834  and  _835
REMARK  340  A    between atoms: _840  and  _841
REMARK  341  A    between atoms: _843  and  _845
REMARK  342  A    between atoms: _845  and  _846
REMARK  343  A    between atoms: _845  and  _848
REMARK  344  A    between atoms: _848  and  _849
REMARK  345  A    between atoms: _853  and  ZN_1037
REMARK  346  A    between atoms: _854  and  _856
REMARK  347  A    between atoms: _856  and  _857
REMARK  348  A    between atoms: _856  and  _859
REMARK  349  A    between atoms: _859  and  _860
REMARK  350  A    between atoms: _860  and  _861
REMARK  351  A    between atoms: _864  and  _866
REMARK  352  A    between atoms: _866  and  _867
REMARK  353  A    between atoms: _866  and  _869
REMARK  354  A    between atoms: _869  and  _870
REMARK  355  A    between atoms: _870  and  _871
REMARK  356  A    between atoms: _871  and  _872
REMARK  357  A    between atoms: _881  and  _883
REMARK  358  A    between atoms: _883  and  _884
REMARK  359  A    between atoms: _883  and  _886
REMARK  360  A    between atoms: _886  and  _887
REMARK  361  A    between atoms: _887  and  _888
REMARK  362  A    between atoms: _888  and  _889
REMARK  363  A    between atoms: _889  and  _890
REMARK  364  A    between atoms: _894  and  _896
REMARK  365  A    between atoms: _896  and  _897
REMARK  366  A    between atoms: _896  and  _899
REMARK  367  A    between atoms: _899  and  _900
REMARK  368  A    between atoms: _905  and  _906
REMARK  369  A    between atoms: _908  and  _910
REMARK  370  A    between atoms: _910  and  _911
REMARK  371  A    between atoms: _910  and  _913
REMARK  372  A    between atoms: _913  and  _914
REMARK  373  A    between atoms: _914  and  _915
REMARK  374  A    between atoms: _915  and  _916
REMARK  375  A    between atoms: _916  and  _917
REMARK  376  A    between atoms: _921  and  _923
REMARK  377  A    between atoms: _923  and  _924
REMARK  378  A    between atoms: _923  and  _926
REMARK  379  A    between atoms: _926  and  _927
REMARK  380  A    between atoms: _932  and  _933
REMARK  381  A    between atoms: _935  and  _937
REMARK  382  A    between atoms: _937  and  _938
REMARK  383  A    between atoms: _937  and  _940
REMARK  384  A    between atoms: _940  and  _941
REMARK  385  A    between atoms: _946  and  _947
REMARK  386  A    between atoms: _949  and  _951
REMARK  387  A    between atoms: _951  and  _952
REMARK  388  A    between atoms: _956  and  _957
REMARK  389  A    between atoms: _962  and  _964
REMARK  390  A    between atoms: _964  and  _965
REMARK  391  A    between atoms: _964  and  _967
REMARK  392  A    between atoms: _967  and  _968
REMARK  393  A    between atoms: _970  and  _972
REMARK  394  A    between atoms: _972  and  _973
REMARK  395  A    between atoms: _972  and  _975
REMARK  396  A    between atoms: _975  and  _976
REMARK  397  A    between atoms: _981  and  _983
REMARK  398  A    between atoms: _983  and  _984
REMARK  399  A    between atoms: _983  and  _986
REMARK  400  A    between atoms: _986  and  _987
REMARK  401  A    between atoms: _987  and  _988
REMARK  402  A    between atoms: _988  and  _989
REMARK  403  A    between atoms: _989  and  _990
REMARK  404  A    between atoms: _994  and  _996
REMARK  405  A    between atoms: _996  and  _997
REMARK  406  A    between atoms: _996  and  _999
REMARK  407  A    between atoms: _999  and  _1000
REMARK  408  A    between atoms: _1005  and  _1006
REMARK  409  A    between atoms: _1008  and  _1010
REMARK  410  A    between atoms: _1010  and  _1011
REMARK  411  A    between atoms: _1014  and  _1016
REMARK  412  A    between atoms: _1016  and  _1017
REMARK  413  A    between atoms: _1019  and  _1021
REMARK  414  A    between atoms: _1021  and  _1022
REMARK  415  A    between atoms: _1021  and  _1024
REMARK  416  A    between atoms: _1024  and  _1025
REMARK  417  A    between atoms: _1025  and  _1026
REMARK  418  A    between atoms: _1029  and  _1031
REMARK  419  A    between atoms: _1031  and  _1032
REMARK  420  A    between atoms: _1031  and  _1034
REMARK  421  A    between atoms: _1034  and  _1035
REMARK                            x       y       z     vdW  Elec       q    Type
REMARK                         _______ _______ _______ _____ _____    ______ ____
ROOT
ATOM      1  O   HOH     1      32.073  49.079  38.030  0.00  0.00    +0.000 OA
ENDROOT
TORSDOF 0
REMARK  Name = ../refined-set-2016/2xef/2xef_pocket.pdb
REMARK  421 active torsions:
REMARK  status: ('A' for Active; 'I' for Inactive)
REMARK    1  A    between atoms: _1  and  _3
REMARK    2  A    between atoms: _3  and  _4
REMARK    3  A    between atoms: _7  and  _9
REMARK    4  A    between atoms: _9  and  _10
REMARK    5  A    between atoms: _9  and  _12
REMARK    6  A    between atoms: _12  and  _13
REMARK    7  A    between atoms: _19  and  _21
REMARK    8  A    between atoms: _21  and  _22
REMARK    9  A    between atoms: _21  and  _24
REMARK   10  A    between atoms: _24  and  _25
REMARK   11  A    between atoms: _30  and  _31
REMARK   12  A    between atoms: _33  and  _35
REMARK   13  A    between atoms: _35  and  _36
REMARK   14  A    between atoms: _38  and  _40
REMARK   15  A    between atoms: _40  and  _41
REMARK   16  A    between atoms: _40  and  _43
REMARK   17  A    between atoms: _43  and  _44
REMARK   18  A    between atoms: _44  and  _45
REMARK   19  A    between atoms: _45  and  _46
REMARK   20  A    between atoms: _46  and  _47
REMARK   21  A    between atoms: _51  and  _53
REMARK   22  A    between atoms: _53  and  _54
REMARK   23  A    between atoms: _53  and  _56
REMARK   24  A    between atoms: _59  and  _61
REMARK   25  A    between atoms: _61  and  _62
REMARK   26  A    between atoms: _61  and  _64
REMARK   27  A    between atoms: _64  and  _65
REMARK   28  A    between atoms: _71  and  _73
REMARK   29  A    between atoms: _73  and  _74
REMARK   30  A    between atoms: _73  and  _76
REMARK   31  A    between atoms: _76  and  _77
REMARK   32  A    between atoms: _77  and  _78
REMARK   33  A    between atoms: _78  and  _79
REMARK   34  A    between atoms: _88  and  _90
REMARK   35  A    between atoms: _90  and  _91
REMARK   36  A    between atoms: _93  and  _95
REMARK   37  A    between atoms: _95  and  _96
REMARK   38  A    between atoms: _95  and  _98
REMARK   39  A    between atoms: _98  and  _99
REMARK   40  A    between atoms: _99  and  _100
REMARK   41  A    between atoms: _100  and  _101
REMARK   42  A    between atoms: _101  and  _102
REMARK   43  A    between atoms: _106  and  _108
REMARK   44  A    between atoms: _108  and  _109
REMARK   45  A    between atoms: _108  and  _111
REMARK   46  A    between atoms: _111  and  _112
REMARK   47  A    between atoms: _117  and  _118
REMARK   48  A    between atoms: _120  and  _122
REMARK   49  A    between atoms: _122  and  _123
REMARK   50  A    between atoms: _122  and  _125
REMARK   51  A    between atoms: _125  and  _126
REMARK   52  A    between atoms: _126  and  _127
REMARK   53  A    between atoms: _132  and  _134
REMARK   54  A    between atoms: _134  and  _135
REMARK   55  A    between atoms: _134  and  _137
REMARK   56  A    between atoms: _137  and  _138
REMARK   57  A    between atoms: _138  and  _139
REMARK   58  A    between atoms: _139  and  _140
REMARK   59  A    between atoms: _149  and  _151
REMARK   60  A    between atoms: _151  and  _152
REMARK   61  A    between atoms: _154  and  _156
REMARK   62  A    between atoms: _156  and  _157
REMARK   63  A    between atoms: _156  and  _159
REMARK   64  A    between atoms: _159  and  _160
REMARK   65  A    between atoms: _165  and  _167
REMARK   66  A    between atoms: _167  and  _168
REMARK   67  A    between atoms: _167  and  _170
REMARK   68  A    between atoms: _170  and  _171
REMARK   69  A    between atoms: _174  and  _176
REMARK   70  A    between atoms: _176  and  _177
REMARK   71  A    between atoms: _176  and  _179
REMARK   72  A    between atoms: _179  and  _180
REMARK   73  A    between atoms: _183  and  _185
REMARK   74  A    between atoms: _185  and  _186
REMARK   75  A    between atoms: _185  and  _188
REMARK   76  A    between atoms: _188  and  _189
REMARK   77  A    between atoms: _194  and  _196
REMARK   78  A    between atoms: _196  and  _197
REMARK   79  A    between atoms: _196  and  _199
REMARK   80  A    between atoms: _199  and  _200
REMARK   81  A    between atoms: _203  and  _205
REMARK   82  A    between atoms: _205  and  _206
REMARK   83  A    between atoms: _205  and  _208
REMARK   84  A    between atoms: _208  and  _209
REMARK   85  A    between atoms: _214  and  _216
REMARK   86  A    between atoms: _216  and  _217
REMARK   87  A    between atoms: _219  and  _221
REMARK   88  A    between atoms: _221  and  _222
REMARK   89  A    between atoms: _224  and  _226
REMARK   90  A    between atoms: _226  and  _227
REMARK   91  A    between atoms: _226  and  _229
REMARK   92  A    between atoms: _229  and  _230
REMARK   93  A    between atoms: _234  and  ZN_1038
REMARK   94  A    between atoms: _235  and  _237
REMARK   95  A    between atoms: _237  and  _238
REMARK   96  A    between atoms: _237  and  _240
REMARK   97  A    between atoms: _240  and  _241
REMARK   98  A    between atoms: _244  and  _246
REMARK   99  A    between atoms: _246  and  _247
REMARK  100  A    between atoms: _246  and  _249
REMARK  101  A    between atoms: _249  and  _250
REMARK  102  A    between atoms: _260  and  _262
REMARK  103  A    between atoms: _262  and  _263
REMARK  104  A    between atoms: _262  and  _265
REMARK  105  A    between atoms: _265  and  _266
REMARK  106  A    between atoms: _269  and  _271
REMARK  107  A    between atoms: _271  and  _272
REMARK  108  A    between atoms: _271  and  _274
REMARK  109  A    between atoms: _274  and  _275
REMARK  110  A    between atoms: _279  and  _280
REMARK  111  A    between atoms: _285  and  _287
REMARK  112  A    between atoms: _287  and  _288
REMARK  113  A    between atoms: _291  and  _293
REMARK  114  A    between atoms: _293  and  _294
REMARK  115  A    between atoms: _293  and  _296
REMARK  116  A    between atoms: _296  and  _297
REMARK  117  A    between atoms: _297  and  _298
REMARK  118  A    between atoms: _301  and  _303
REMARK  119  A    between atoms: _303  and  _304
REMARK  120  A    between atoms: _303  and  _306
REMARK  121  A    between atoms: _306  and  _307
REMARK  122  A    between atoms: _307  and  _308
REMARK  123  A    between atoms: _308  and  _310
REMARK  124  A    between atoms: _310  and  ZN_1037
REMARK  125  A    between atoms: _311  and  _313
REMARK  126  A    between atoms: _313  and  _314
REMARK  127  A    between atoms: _313  and  _316
REMARK  128  A    between atoms: _316  and  _317
REMARK  129  A    between atoms: _323  and  _325
REMARK  130  A    between atoms: _325  and  _326
REMARK  131  A    between atoms: _328  and  _330
REMARK  132  A    between atoms: _330  and  _331
REMARK  133  A    between atoms: _330  and  _333
REMARK  134  A    between atoms: _333  and  _334
REMARK  135  A    between atoms: _337  and  _339
REMARK  136  A    between atoms: _339  and  _340
REMARK  137  A    between atoms: _339  and  _342
REMARK  138  A    between atoms: _342  and  _343
REMARK  139  A    between atoms: _346  and  _348
REMARK  140  A    between atoms: _348  and  _349
REMARK  141  A    between atoms: _348  and  _351
REMARK  142  A    between atoms: _351  and  _352
REMARK  143  A    between atoms: _357  and  _359
REMARK  144  A    between atoms: _359  and  _360
REMARK  145  A    between atoms: _359  and  _362
REMARK  146  A    between atoms: _362  and  _363
REMARK  147  A    between atoms: _363  and  _365
REMARK  148  A    between atoms: _365  and  ZN_1038
REMARK  149  A    between atoms: _366  and  _368
REMARK  150  A    between atoms: _368  and  _369
REMARK  151  A    between atoms: _368  and  _371
REMARK  152  A    between atoms: _371  and  _372
REMARK  153  A    between atoms: _374  and  _376
REMARK  154  A    between atoms: _376  and  _377
REMARK  155  A    between atoms: _376  and  _379
REMARK  156  A    between atoms: _379  and  _380
REMARK  157  A    between atoms: _382  and  _384
REMARK  158  A    between atoms: _384  and  _385
REMARK  159  A    between atoms: _384  and  _387
REMARK  160  A    between atoms: _387  and  _388
REMARK  161  A    between atoms: _391  and  _393
REMARK  162  A    between atoms: _393  and  _394
REMARK  163  A    between atoms: _393  and  _396
REMARK  164  A    between atoms: _396  and  _397
REMARK  165  A    between atoms: _397  and  _398
REMARK  166  A    between atoms: _401  and  _403
REMARK  167  A    between atoms: _403  and  _404
REMARK  168  A    between atoms: _403  and  _406
REMARK  169  A    between atoms: _406  and  _407
REMARK  170  A    between atoms: _412  and  _413
REMARK  171  A    between atoms: _415  and  _417
REMARK  172  A    between atoms: _417  and  _418
REMARK  173  A    between atoms: _417  and  _420
REMARK  174  A    between atoms: _420  and  _421
REMARK  175  A    between atoms: _424  and  _426
REMARK  176  A    between atoms: _426  and  _427
REMARK  177  A    between atoms: _426  and  _429
REMARK  178  A    between atoms: _429  and  _430
REMARK  179  A    between atoms: _433  and  _435
REMARK  180  A    between atoms: _435  and  _436
REMARK  181  A    between atoms: _435  and  _438
REMARK  182  A    between atoms: _438  and  _439
REMARK  183  A    between atoms: _439  and  _440
REMARK  184  A    between atoms: _440  and  _441
REMARK  185  A    between atoms: _450  and  _452
REMARK  186  A    between atoms: _452  and  _453
REMARK  187  A    between atoms: _452  and  _455
REMARK  188  A    between atoms: _458  and  _460
REMARK  189  A    between atoms: _460  and  _461
REMARK  190  A    between atoms: _460  and  _463
REMARK  191  A    between atoms: _463  and  _464
REMARK  192  A    between atoms: _467  and  _469
REMARK  193  A    between atoms: _469  and  _470
REMARK  194  A    between atoms: _469  and  _472
REMARK  195  A    between atoms: _474  and  _476
REMARK  196  A    between atoms: _476  and  _477
REMARK  197  A    between atoms: _476  and  _479
REMARK  198  A    between atoms: _479  and  _480
REMARK  199  A    between atoms: _490  and  _492
REMARK  200  A    between atoms: _492  and  _493
REMARK  201  A    between atoms: _492  and  _495
REMARK  202  A    between atoms: _495  and  _496
REMARK  203  A    between atoms: _496  and  _497
REMARK  204  A    between atoms: _497  and  _498
REMARK  205  A    between atoms: _498  and  _499
REMARK  206  A    between atoms: _503  and  _505
REMARK  207  A    between atoms: _505  and  _506
REMARK  208  A    between atoms: _505  and  _508
REMARK  209  A    between atoms: _508  and  _509
REMARK  210  A    between atoms: _512  and  _513
REMARK  211  A    between atoms: _519  and  _520
REMARK  212  A    between atoms: _525  and  _527
REMARK  213  A    between atoms: _527  and  _528
REMARK  214  A    between atoms: _527  and  _530
REMARK  215  A    between atoms: _530  and  _531
REMARK  216  A    between atoms: _531  and  _532
REMARK  217  A    between atoms: _535  and  _537
REMARK  218  A    between atoms: _537  and  _538
REMARK  219  A    between atoms: _537  and  _540
REMARK  220  A    between atoms: _540  and  _541
REMARK  221  A    between atoms: _541  and  _542
REMARK  222  A    between atoms: _542  and  _543
REMARK  223  A    between atoms: _552  and  _554
REMARK  224  A    between atoms: _554  and  _555
REMARK  225  A    between atoms: _554  and  _557
REMARK  226  A    between atoms: _557  and  _558
REMARK  227  A    between atoms: _561  and  _563
REMARK  228  A    between atoms: _563  and  _564
REMARK  229  A    between atoms: _563  and  _566
REMARK  230  A    between atoms: _566  and  _567
REMARK  231  A    between atoms: _569  and  _571
REMARK  232  A    between atoms: _571  and  _572
REMARK  233  A    between atoms: _571  and  _574
REMARK  234  A    between atoms: _574  and  _575
REMARK  235  A    between atoms: _575  and  _576
REMARK  236  A    between atoms: _576  and  _577
REMARK  237  A    between atoms: _577  and  _578
REMARK  238  A    between atoms: _582  and  _584
REMARK  239  A    between atoms: _584  and  _585
REMARK  240  A    between atoms: _584  and  _587
REMARK  241  A    between atoms: _587  and  _588
REMARK  242  A    between atoms: _591  and  _593
REMARK  243  A    between atoms: _593  and  _594
REMARK  244  A    between atoms: _596  and  _598
REMARK  245  A    between atoms: _598  and  _599
REMARK  246  A    between atoms: _598  and  _601
REMARK  247  A    between atoms: _601  and  _602
REMARK  248  A    between atoms: _604  and  _606
REMARK  249  A    between atoms: _606  and  _607
REMARK  250  A    between atoms: _609  and  _611
REMARK  251  A    between atoms: _611  and  _612
REMARK  252  A    between atoms: _611  and  _614
REMARK  253  A    between atoms: _614  and  _615
REMARK  254  A    between atoms: _620  and  _622
REMARK  255  A    between atoms: _622  and  _623
REMARK  256  A    between atoms: _622  and  _625
REMARK  257  A    between atoms: _625  and  _626
REMARK  258  A    between atoms: _629  and  _631
REMARK  259  A    between atoms: _631  and  _632
REMARK  260  A    between atoms: _631  and  _634
REMARK  261  A    between atoms: _634  and  _635
REMARK  262  A    between atoms: _641  and  _643
REMARK  263  A    between atoms: _643  and  _644
REMARK  264  A    between atoms: _643  and  _646
REMARK  265  A    between atoms: _646  and  _647
REMARK  266  A    between atoms: _647  and  _648
REMARK  267  A    between atoms: _651  and  _653
REMARK  268  A    between atoms: _653  and  _654
REMARK  269  A    between atoms: _653  and  _656
REMARK  270  A    between atoms: _656  and  _657
REMARK  271  A    between atoms: _657  and  _658
REMARK  272  A    between atoms: _663  and  _665
REMARK  273  A    between atoms: _665  and  _666
REMARK  274  A    between atoms: _665  and  _668
REMARK  275  A    between atoms: _668  and  _669
REMARK  276  A    between atoms: _669  and  _670
REMARK  277  A    between atoms: _670  and  _671
REMARK  278  A    between atoms: _680  and  _682
REMARK  279  A    between atoms: _682  and  _683
REMARK  280  A    between atoms: _682  and  _685
REMARK  281  A    between atoms: _685  and  _686
REMARK  282  A    between atoms: _686  and  _687
REMARK  283  A    between atoms: _687  and  _688
REMARK  284  A    between atoms: _697  and  _699
REMARK  285  A    between atoms: _699  and  _700
REMARK  286  A    between atoms: _699  and  _702
REMARK  287  A    between atoms: _702  and  _703
REMARK  288  A    between atoms: _708  and  _709
REMARK  289  A    between atoms: _711  and  _713
REMARK  290  A    between atoms: _713  and  _714
REMARK  291  A    between atoms: _713  and  _716
REMARK  292  A    between atoms: _716  and  _717
REMARK  293  A    between atoms: _720  and  _722
REMARK  294  A    between atoms: _722  and  _723
REMARK  295  A    between atoms: _722  and  _725
REMARK  296  A    between atoms: _725  and  _726
REMARK  297  A    between atoms: _726  and  _727
REMARK  298  A    between atoms: _727  and  _728
REMARK  299  A    between atoms: _728  and  _729
REMARK  300  A    between atoms: _733  and  _735
REMARK  301  A    between atoms: _735  and  _736
REMARK  302  A    between atoms: _735  and  _738
REMARK  303  A    between atoms: _738  and  _739
REMARK  304  A    between atoms: _744  and  _746
REMARK  305  A    between atoms: _746  and  _747
REMARK  306  A    between atoms: _746  and  _749
REMARK  307  A    between atoms: _749  and  _750
REMARK  308  A    between atoms: _760  and  _762
REMARK  309  A    between atoms: _762  and  _763
REMARK  310  A    between atoms: _762  and  _765
REMARK  311  A    between atoms: _765  and  _766
REMARK  312  A    between atoms: _766  and  _767
REMARK  313  A    between atoms: _770  and  _772
REMARK  314  A    between atoms: _772  and  _773
REMARK  315  A    between atoms: _772  and  _775
REMARK  316  A    between atoms: _775  and  _776
REMARK  317  A    between atoms: _779  and  _781
REMARK  318  A    between atoms: _781  and  _782
REMARK  319  A    between atoms: _781  and  _784
REMARK  320  A    between atoms: _784  and  _785
REMARK  321  A    between atoms: _790  and  _792
REMARK  322  A    between atoms: _792  and  _793
REMARK  323  A    between atoms: _792  and  _795
REMARK  324  A    between atoms: _795  and  _796
REMARK  325  A    between atoms: _802  and  _804
REMARK  326  A    between atoms: _804  and  _805
REMARK  327  A    between atoms: _804  and  _807
REMARK  328  A    between atoms: _807  and  _808
REMARK  329  A    between atoms: _810  and  _812
REMARK  330  A    between atoms: _812  and  _813
REMARK  331  A    between atoms: _815  and  _817
REMARK  332  A    between atoms: _817  and  _818
REMARK  333  A    between atoms: _817  and  _820
REMARK  334  A    between atoms: _820  and  _821
REMARK  335  A    between atoms: _826  and  _827
REMARK  336  A    between atoms: _829  and  _831
REMARK  337  A    between atoms: _831  and  _832
REMARK  338  A    between atoms: _831  and  _834
REMARK  339  A    between atoms: _834  and  _835
REMARK  340  A    between atoms: _840  and  _841
REMARK  341  A    between atoms: _843  and  _845
REMARK  342  A    between atoms: _845  and  _846
REMARK  343  A    between atoms: _845  and  _848
REMARK  344  A    between atoms: _848  and  _849
REMARK  345  A    between atoms: _853  and  ZN_1037
REMARK  346  A    between atoms: _854  and  _856
REMARK  347  A    between atoms: _856  and  _857
REMARK  348  A    between atoms: _856  and  _859
REMARK  349  A    between atoms: _859  and  _860
REMARK  350  A    between atoms: _860  and  _861
REMARK  351  A    between atoms: _864  and  _866
REMARK  352  A    between atoms: _866  and  _867
REMARK  353  A    between atoms: _866  and  _869
REMARK  354  A    between atoms: _869  and  _870
REMARK  355  A    between atoms: _870  and  _871
REMARK  356  A    between atoms: _871  and  _872
REMARK  357  A    between atoms: _881  and  _883
REMARK  358  A    between atoms: _883  and  _884
REMARK  359  A    between atoms: _883  and  _886
REMARK  360  A    between atoms: _886  and  _887
REMARK  361  A    between atoms: _887  and  _888
REMARK  362  A    between atoms: _888  and  _889
REMARK  363  A    between atoms: _889  and  _890
REMARK  364  A    between atoms: _894  and  _896
REMARK  365  A    between atoms: _896  and  _897
REMARK  366  A    between atoms: _896  and  _899
REMARK  367  A    between atoms: _899  and  _900
REMARK  368  A    between atoms: _905  and  _906
REMARK  369  A    between atoms: _908  and  _910
REMARK  370  A    between atoms: _910  and  _911
REMARK  371  A    between atoms: _910  and  _913
REMARK  372  A    between atoms: _913  and  _914
REMARK  373  A    between atoms: _914  and  _915
REMARK  374  A    between atoms: _915  and  _916
REMARK  375  A    between atoms: _916  and  _917
REMARK  376  A    between atoms: _921  and  _923
REMARK  377  A    between atoms: _923  and  _924
REMARK  378  A    between atoms: _923  and  _926
REMARK  379  A    between atoms: _926  and  _927
REMARK  380  A    between atoms: _932  and  _933
REMARK  381  A    between atoms: _935  and  _937
REMARK  382  A    between atoms: _937  and  _938
REMARK  383  A    between atoms: _937  and  _940
REMARK  384  A    between atoms: _940  and  _941
REMARK  385  A    between atoms: _946  and  _947
REMARK  386  A    between atoms: _949  and  _951
REMARK  387  A    between atoms: _951  and  _952
REMARK  388  A    between atoms: _956  and  _957
REMARK  389  A    between atoms: _962  and  _964
REMARK  390  A    between atoms: _964  and  _965
REMARK  391  A    between atoms: _964  and  _967
REMARK  392  A    between atoms: _967  and  _968
REMARK  393  A    between atoms: _970  and  _972
REMARK  394  A    between atoms: _972  and  _973
REMARK  395  A    between atoms: _972  and  _975
REMARK  396  A    between atoms: _975  and  _976
REMARK  397  A    between atoms: _981  and  _983
REMARK  398  A    between atoms: _983  and  _984
REMARK  399  A    between atoms: _983  and  _986
REMARK  400  A    between atoms: _986  and  _987
REMARK  401  A    between atoms: _987  and  _988
REMARK  402  A    between atoms: _988  and  _989
REMARK  403  A    between atoms: _989  and  _990
REMARK  404  A    between atoms: _994  and  _996
REMARK  405  A    between atoms: _996  and  _997
REMARK  406  A    between atoms: _996  and  _999
REMARK  407  A    between atoms: _999  and  _1000
REMARK  408  A    between atoms: _1005  and  _1006
REMARK  409  A    between atoms: _1008  and  _1010
REMARK  410  A    between atoms: _1010  and  _1011
REMARK  411  A    between atoms: _1014  and  _1016
REMARK  412  A    between atoms: _1016  and  _1017
REMARK  413  A    between atoms: _1019  and  _1021
REMARK  414  A    between atoms: _1021  and  _1022
REMARK  415  A    between atoms: _1021  and  _1024
REMARK  416  A    between atoms: _1024  and  _1025
REMARK  417  A    between atoms: _1025  and  _1026
REMARK  418  A    between atoms: _1029  and  _1031
REMARK  419  A    between atoms: _1031  and  _1032
REMARK  420  A    between atoms: _1031  and  _1034
REMARK  421  A    between atoms: _1034  and  _1035
REMARK                            x       y       z     vdW  Elec       q    Type
REMARK                         _______ _______ _______ _____ _____    ______ ____
ROOT
ATOM      1  O   HOH     1      23.874  46.011  34.596  0.00  0.00    +0.000 OA
ENDROOT
TORSDOF 0
REMARK  Name = ../refined-set-2016/2xef/2xef_pocket.pdb
REMARK  421 active torsions:
REMARK  status: ('A' for Active; 'I' for Inactive)
REMARK    1  A    between atoms: _1  and  _3
REMARK    2  A    between atoms: _3  and  _4
REMARK    3  A    between atoms: _7  and  _9
REMARK    4  A    between atoms: _9  and  _10
REMARK    5  A    between atoms: _9  and  _12
REMARK    6  A    between atoms: _12  and  _13
REMARK    7  A    between atoms: _19  and  _21
REMARK    8  A    between atoms: _21  and  _22
REMARK    9  A    between atoms: _21  and  _24
REMARK   10  A    between atoms: _24  and  _25
REMARK   11  A    between atoms: _30  and  _31
REMARK   12  A    between atoms: _33  and  _35
REMARK   13  A    between atoms: _35  and  _36
REMARK   14  A    between atoms: _38  and  _40
REMARK   15  A    between atoms: _40  and  _41
REMARK   16  A    between atoms: _40  and  _43
REMARK   17  A    between atoms: _43  and  _44
REMARK   18  A    between atoms: _44  and  _45
REMARK   19  A    between atoms: _45  and  _46
REMARK   20  A    between atoms: _46  and  _47
REMARK   21  A    between atoms: _51  and  _53
REMARK   22  A    between atoms: _53  and  _54
REMARK   23  A    between atoms: _53  and  _56
REMARK   24  A    between atoms: _59  and  _61
REMARK   25  A    between atoms: _61  and  _62
REMARK   26  A    between atoms: _61  and  _64
REMARK   27  A    between atoms: _64  and  _65
REMARK   28  A    between atoms: _71  and  _73
REMARK   29  A    between atoms: _73  and  _74
REMARK   30  A    between atoms: _73  and  _76
REMARK   31  A    between atoms: _76  and  _77
REMARK   32  A    between atoms: _77  and  _78
REMARK   33  A    between atoms: _78  and  _79
REMARK   34  A    between atoms: _88  and  _90
REMARK   35  A    between atoms: _90  and  _91
REMARK   36  A    between atoms: _93  and  _95
REMARK   37  A    between atoms: _95  and  _96
REMARK   38  A    between atoms: _95  and  _98
REMARK   39  A    between atoms: _98  and  _99
REMARK   40  A    between atoms: _99  and  _100
REMARK   41  A    between atoms: _100  and  _101
REMARK   42  A    between atoms: _101  and  _102
REMARK   43  A    between atoms: _106  and  _108
REMARK   44  A    between atoms: _108  and  _109
REMARK   45  A    between atoms: _108  and  _111
REMARK   46  A    between atoms: _111  and  _112
REMARK   47  A    between atoms: _117  and  _118
REMARK   48  A    between atoms: _120  and  _122
REMARK   49  A    between atoms: _122  and  _123
REMARK   50  A    between atoms: _122  and  _125
REMARK   51  A    between atoms: _125  and  _126
REMARK   52  A    between atoms: _126  and  _127
REMARK   53  A    between atoms: _132  and  _134
REMARK   54  A    between atoms: _134  and  _135
REMARK   55  A    between atoms: _134  and  _137
REMARK   56  A    between atoms: _137  and  _138
REMARK   57  A    between atoms: _138  and  _139
REMARK   58  A    between atoms: _139  and  _140
REMARK   59  A    between atoms: _149  and  _151
REMARK   60  A    between atoms: _151  and  _152
REMARK   61  A    between atoms: _154  and  _156
REMARK   62  A    between atoms: _156  and  _157
REMARK   63  A    between atoms: _156  and  _159
REMARK   64  A    between atoms: _159  and  _160
REMARK   65  A    between atoms: _165  and  _167
REMARK   66  A    between atoms: _167  and  _168
REMARK   67  A    between atoms: _167  and  _170
REMARK   68  A    between atoms: _170  and  _171
REMARK   69  A    between atoms: _174  and  _176
REMARK   70  A    between atoms: _176  and  _177
REMARK   71  A    between atoms: _176  and  _179
REMARK   72  A    between atoms: _179  and  _180
REMARK   73  A    between atoms: _183  and  _185
REMARK   74  A    between atoms: _185  and  _186
REMARK   75  A    between atoms: _185  and  _188
REMARK   76  A    between atoms: _188  and  _189
REMARK   77  A    between atoms: _194  and  _196
REMARK   78  A    between atoms: _196  and  _197
REMARK   79  A    between atoms: _196  and  _199
REMARK   80  A    between atoms: _199  and  _200
REMARK   81  A    between atoms: _203  and  _205
REMARK   82  A    between atoms: _205  and  _206
REMARK   83  A    between atoms: _205  and  _208
REMARK   84  A    between atoms: _208  and  _209
REMARK   85  A    between atoms: _214  and  _216
REMARK   86  A    between atoms: _216  and  _217
REMARK   87  A    between atoms: _219  and  _221
REMARK   88  A    between atoms: _221  and  _222
REMARK   89  A    between atoms: _224  and  _226
REMARK   90  A    between atoms: _226  and  _227
REMARK   91  A    between atoms: _226  and  _229
REMARK   92  A    between atoms: _229  and  _230
REMARK   93  A    between atoms: _234  and  ZN_1038
REMARK   94  A    between atoms: _235  and  _237
REMARK   95  A    between atoms: _237  and  _238
REMARK   96  A    between atoms: _237  and  _240
REMARK   97  A    between atoms: _240  and  _241
REMARK   98  A    between atoms: _244  and  _246
REMARK   99  A    between atoms: _246  and  _247
REMARK  100  A    between atoms: _246  and  _249
REMARK  101  A    between atoms: _249  and  _250
REMARK  102  A    between atoms: _260  and  _262
REMARK  103  A    between atoms: _262  and  _263
REMARK  104  A    between atoms: _262  and  _265
REMARK  105  A    between atoms: _265  and  _266
REMARK  106  A    between atoms: _269  and  _271
REMARK  107  A    between atoms: _271  and  _272
REMARK  108  A    between atoms: _271  and  _274
REMARK  109  A    between atoms: _274  and  _275
REMARK  110  A    between atoms: _279  and  _280
REMARK  111  A    between atoms: _285  and  _287
REMARK  112  A    between atoms: _287  and  _288
REMARK  113  A    between atoms: _291  and  _293
REMARK  114  A    between atoms: _293  and  _294
REMARK  115  A    between atoms: _293  and  _296
REMARK  116  A    between atoms: _296  and  _297
REMARK  117  A    between atoms: _297  and  _298
REMARK  118  A    between atoms: _301  and  _303
REMARK  119  A    between atoms: _303  and  _304
REMARK  120  A    between atoms: _303  and  _306
REMARK  121  A    between atoms: _306  and  _307
REMARK  122  A    between atoms: _307  and  _308
REMARK  123  A    between atoms: _308  and  _310
REMARK  124  A    between atoms: _310  and  ZN_1037
REMARK  125  A    between atoms: _311  and  _313
REMARK  126  A    between atoms: _313  and  _314
REMARK  127  A    between atoms: _313  and  _316
REMARK  128  A    between atoms: _316  and  _317
REMARK  129  A    between atoms: _323  and  _325
REMARK  130  A    between atoms: _325  and  _326
REMARK  131  A    between atoms: _328  and  _330
REMARK  132  A    between atoms: _330  and  _331
REMARK  133  A    between atoms: _330  and  _333
REMARK  134  A    between atoms: _333  and  _334
REMARK  135  A    between atoms: _337  and  _339
REMARK  136  A    between atoms: _339  and  _340
REMARK  137  A    between atoms: _339  and  _342
REMARK  138  A    between atoms: _342  and  _343
REMARK  139  A    between atoms: _346  and  _348
REMARK  140  A    between atoms: _348  and  _349
REMARK  141  A    between atoms: _348  and  _351
REMARK  142  A    between atoms: _351  and  _352
REMARK  143  A    between atoms: _357  and  _359
REMARK  144  A    between atoms: _359  and  _360
REMARK  145  A    between atoms: _359  and  _362
REMARK  146  A    between atoms: _362  and  _363
REMARK  147  A    between atoms: _363  and  _365
REMARK  148  A    between atoms: _365  and  ZN_1038
REMARK  149  A    between atoms: _366  and  _368
REMARK  150  A    between atoms: _368  and  _369
REMARK  151  A    between atoms: _368  and  _371
REMARK  152  A    between atoms: _371  and  _372
REMARK  153  A    between atoms: _374  and  _376
REMARK  154  A    between atoms: _376  and  _377
REMARK  155  A    between atoms: _376  and  _379
REMARK  156  A    between atoms: _379  and  _380
REMARK  157  A    between atoms: _382  and  _384
REMARK  158  A    between atoms: _384  and  _385
REMARK  159  A    between atoms: _384  and  _387
REMARK  160  A    between atoms: _387  and  _388
REMARK  161  A    between atoms: _391  and  _393
REMARK  162  A    between atoms: _393  and  _394
REMARK  163  A    between atoms: _393  and  _396
REMARK  164  A    between atoms: _396  and  _397
REMARK  165  A    between atoms: _397  and  _398
REMARK  166  A    between atoms: _401  and  _403
REMARK  167  A    between atoms: _403  and  _404
REMARK  168  A    between atoms: _403  and  _406
REMARK  169  A    between atoms: _406  and  _407
REMARK  170  A    between atoms: _412  and  _413
REMARK  171  A    between atoms: _415  and  _417
REMARK  172  A    between atoms: _417  and  _418
REMARK  173  A    between atoms: _417  and  _420
REMARK  174  A    between atoms: _420  and  _421
REMARK  175  A    between atoms: _424  and  _426
REMARK  176  A    between atoms: _426  and  _427
REMARK  177  A    between atoms: _426  and  _429
REMARK  178  A    between atoms: _429  and  _430
REMARK  179  A    between atoms: _433  and  _435
REMARK  180  A    between atoms: _435  and  _436
REMARK  181  A    between atoms: _435  and  _438
REMARK  182  A    between atoms: _438  and  _439
REMARK  183  A    between atoms: _439  and  _440
REMARK  184  A    between atoms: _440  and  _441
REMARK  185  A    between atoms: _450  and  _452
REMARK  186  A    between atoms: _452  and  _453
REMARK  187  A    between atoms: _452  and  _455
REMARK  188  A    between atoms: _458  and  _460
REMARK  189  A    between atoms: _460  and  _461
REMARK  190  A    between atoms: _460  and  _463
REMARK  191  A    between atoms: _463  and  _464
REMARK  192  A    between atoms: _467  and  _469
REMARK  193  A    between atoms: _469  and  _470
REMARK  194  A    between atoms: _469  and  _472
REMARK  195  A    between atoms: _474  and  _476
REMARK  196  A    between atoms: _476  and  _477
REMARK  197  A    between atoms: _476  and  _479
REMARK  198  A    between atoms: _479  and  _480
REMARK  199  A    between atoms: _490  and  _492
REMARK  200  A    between atoms: _492  and  _493
REMARK  201  A    between atoms: _492  and  _495
REMARK  202  A    between atoms: _495  and  _496
REMARK  203  A    between atoms: _496  and  _497
REMARK  204  A    between atoms: _497  and  _498
REMARK  205  A    between atoms: _498  and  _499
REMARK  206  A    between atoms: _503  and  _505
REMARK  207  A    between atoms: _505  and  _506
REMARK  208  A    between atoms: _505  and  _508
REMARK  209  A    between atoms: _508  and  _509
REMARK  210  A    between atoms: _512  and  _513
REMARK  211  A    between atoms: _519  and  _520
REMARK  212  A    between atoms: _525  and  _527
REMARK  213  A    between atoms: _527  and  _528
REMARK  214  A    between atoms: _527  and  _530
REMARK  215  A    between atoms: _530  and  _531
REMARK  216  A    between atoms: _531  and  _532
REMARK  217  A    between atoms: _535  and  _537
REMARK  218  A    between atoms: _537  and  _538
REMARK  219  A    between atoms: _537  and  _540
REMARK  220  A    between atoms: _540  and  _541
REMARK  221  A    between atoms: _541  and  _542
REMARK  222  A    between atoms: _542  and  _543
REMARK  223  A    between atoms: _552  and  _554
REMARK  224  A    between atoms: _554  and  _555
REMARK  225  A    between atoms: _554  and  _557
REMARK  226  A    between atoms: _557  and  _558
REMARK  227  A    between atoms: _561  and  _563
REMARK  228  A    between atoms: _563  and  _564
REMARK  229  A    between atoms: _563  and  _566
REMARK  230  A    between atoms: _566  and  _567
REMARK  231  A    between atoms: _569  and  _571
REMARK  232  A    between atoms: _571  and  _572
REMARK  233  A    between atoms: _571  and  _574
REMARK  234  A    between atoms: _574  and  _575
REMARK  235  A    between atoms: _575  and  _576
REMARK  236  A    between atoms: _576  and  _577
REMARK  237  A    between atoms: _577  and  _578
REMARK  238  A    between atoms: _582  and  _584
REMARK  239  A    between atoms: _584  and  _585
REMARK  240  A    between atoms: _584  and  _587
REMARK  241  A    between atoms: _587  and  _588
REMARK  242  A    between atoms: _591  and  _593
REMARK  243  A    between atoms: _593  and  _594
REMARK  244  A    between atoms: _596  and  _598
REMARK  245  A    between atoms: _598  and  _599
REMARK  246  A    between atoms: _598  and  _601
REMARK  247  A    between atoms: _601  and  _602
REMARK  248  A    between atoms: _604  and  _606
REMARK  249  A    between atoms: _606  and  _607
REMARK  250  A    between atoms: _609  and  _611
REMARK  251  A    between atoms: _611  and  _612
REMARK  252  A    between atoms: _611  and  _614
REMARK  253  A    between atoms: _614  and  _615
REMARK  254  A    between atoms: _620  and  _622
REMARK  255  A    between atoms: _622  and  _623
REMARK  256  A    between atoms: _622  and  _625
REMARK  257  A    between atoms: _625  and  _626
REMARK  258  A    between atoms: _629  and  _631
REMARK  259  A    between atoms: _631  and  _632
REMARK  260  A    between atoms: _631  and  _634
REMARK  261  A    between atoms: _634  and  _635
REMARK  262  A    between atoms: _641  and  _643
REMARK  263  A    between atoms: _643  and  _644
REMARK  264  A    between atoms: _643  and  _646
REMARK  265  A    between atoms: _646  and  _647
REMARK  266  A    between atoms: _647  and  _648
REMARK  267  A    between atoms: _651  and  _653
REMARK  268  A    between atoms: _653  and  _654
REMARK  269  A    between atoms: _653  and  _656
REMARK  270  A    between atoms: _656  and  _657
REMARK  271  A    between atoms: _657  and  _658
REMARK  272  A    between atoms: _663  and  _665
REMARK  273  A    between atoms: _665  and  _666
REMARK  274  A    between atoms: _665  and  _668
REMARK  275  A    between atoms: _668  and  _669
REMARK  276  A    between atoms: _669  and  _670
REMARK  277  A    between atoms: _670  and  _671
REMARK  278  A    between atoms: _680  and  _682
REMARK  279  A    between atoms: _682  and  _683
REMARK  280  A    between atoms: _682  and  _685
REMARK  281  A    between atoms: _685  and  _686
REMARK  282  A    between atoms: _686  and  _687
REMARK  283  A    between atoms: _687  and  _688
REMARK  284  A    between atoms: _697  and  _699
REMARK  285  A    between atoms: _699  and  _700
REMARK  286  A    between atoms: _699  and  _702
REMARK  287  A    between atoms: _702  and  _703
REMARK  288  A    between atoms: _708  and  _709
REMARK  289  A    between atoms: _711  and  _713
REMARK  290  A    between atoms: _713  and  _714
REMARK  291  A    between atoms: _713  and  _716
REMARK  292  A    between atoms: _716  and  _717
REMARK  293  A    between atoms: _720  and  _722
REMARK  294  A    between atoms: _722  and  _723
REMARK  295  A    between atoms: _722  and  _725
REMARK  296  A    between atoms: _725  and  _726
REMARK  297  A    between atoms: _726  and  _727
REMARK  298  A    between atoms: _727  and  _728
REMARK  299  A    between atoms: _728  and  _729
REMARK  300  A    between atoms: _733  and  _735
REMARK  301  A    between atoms: _735  and  _736
REMARK  302  A    between atoms: _735  and  _738
REMARK  303  A    between atoms: _738  and  _739
REMARK  304  A    between atoms: _744  and  _746
REMARK  305  A    between atoms: _746  and  _747
REMARK  306  A    between atoms: _746  and  _749
REMARK  307  A    between atoms: _749  and  _750
REMARK  308  A    between atoms: _760  and  _762
REMARK  309  A    between atoms: _762  and  _763
REMARK  310  A    between atoms: _762  and  _765
REMARK  311  A    between atoms: _765  and  _766
REMARK  312  A    between atoms: _766  and  _767
REMARK  313  A    between atoms: _770  and  _772
REMARK  314  A    between atoms: _772  and  _773
REMARK  315  A    between atoms: _772  and  _775
REMARK  316  A    between atoms: _775  and  _776
REMARK  317  A    between atoms: _779  and  _781
REMARK  318  A    between atoms: _781  and  _782
REMARK  319  A    between atoms: _781  and  _784
REMARK  320  A    between atoms: _784  and  _785
REMARK  321  A    between atoms: _790  and  _792
REMARK  322  A    between atoms: _792  and  _793
REMARK  323  A    between atoms: _792  and  _795
REMARK  324  A    between atoms: _795  and  _796
REMARK  325  A    between atoms: _802  and  _804
REMARK  326  A    between atoms: _804  and  _805
REMARK  327  A    between atoms: _804  and  _807
REMARK  328  A    between atoms: _807  and  _808
REMARK  329  A    between atoms: _810  and  _812
REMARK  330  A    between atoms: _812  and  _813
REMARK  331  A    between atoms: _815  and  _817
REMARK  332  A    between atoms: _817  and  _818
REMARK  333  A    between atoms: _817  and  _820
REMARK  334  A    between atoms: _820  and  _821
REMARK  335  A    between atoms: _826  and  _827
REMARK  336  A    between atoms: _829  and  _831
REMARK  337  A    between atoms: _831  and  _832
REMARK  338  A    between atoms: _831  and  _834
REMARK  339  A    between atoms: _834  and  _835
REMARK  340  A    between atoms: _840  and  _841
REMARK  341  A    between atoms: _843  and  _845
REMARK  342  A    between atoms: _845  and  _846
REMARK  343  A    between atoms: _845  and  _848
REMARK  344  A    between atoms: _848  and  _849
REMARK  345  A    between atoms: _853  and  ZN_1037
REMARK  346  A    between atoms: _854  and  _856
REMARK  347  A    between atoms: _856  and  _857
REMARK  348  A    between atoms: _856  and  _859
REMARK  349  A    between atoms: _859  and  _860
REMARK  350  A    between atoms: _860  and  _861
REMARK  351  A    between atoms: _864  and  _866
REMARK  352  A    between atoms: _866  and  _867
REMARK  353  A    between atoms: _866  and  _869
REMARK  354  A    between atoms: _869  and  _870
REMARK  355  A    between atoms: _870  and  _871
REMARK  356  A    between atoms: _871  and  _872
REMARK  357  A    between atoms: _881  and  _883
REMARK  358  A    between atoms: _883  and  _884
REMARK  359  A    between atoms: _883  and  _886
REMARK  360  A    between atoms: _886  and  _887
REMARK  361  A    between atoms: _887  and  _888
REMARK  362  A    between atoms: _888  and  _889
REMARK  363  A    between atoms: _889  and  _890
REMARK  364  A    between atoms: _894  and  _896
REMARK  365  A    between atoms: _896  and  _897
REMARK  366  A    between atoms: _896  and  _899
REMARK  367  A    between atoms: _899  and  _900
REMARK  368  A    between atoms: _905  and  _906
REMARK  369  A    between atoms: _908  and  _910
REMARK  370  A    between atoms: _910  and  _911
REMARK  371  A    between atoms: _910  and  _913
REMARK  372  A    between atoms: _913  and  _914
REMARK  373  A    between atoms: _914  and  _915
REMARK  374  A    between atoms: _915  and  _916
REMARK  375  A    between atoms: _916  and  _917
REMARK  376  A    between atoms: _921  and  _923
REMARK  377  A    between atoms: _923  and  _924
REMARK  378  A    between atoms: _923  and  _926
REMARK  379  A    between atoms: _926  and  _927
REMARK  380  A    between atoms: _932  and  _933
REMARK  381  A    between atoms: _935  and  _937
REMARK  382  A    between atoms: _937  and  _938
REMARK  383  A    between atoms: _937  and  _940
REMARK  384  A    between atoms: _940  and  _941
REMARK  385  A    between atoms: _946  and  _947
REMARK  386  A    between atoms: _949  and  _951
REMARK  387  A    between atoms: _951  and  _952
REMARK  388  A    between atoms: _956  and  _957
REMARK  389  A    between atoms: _962  and  _964
REMARK  390  A    between atoms: _964  and  _965
REMARK  391  A    between atoms: _964  and  _967
REMARK  392  A    between atoms: _967  and  _968
REMARK  393  A    between atoms: _970  and  _972
REMARK  394  A    between atoms: _972  and  _973
REMARK  395  A    between atoms: _972  and  _975
REMARK  396  A    between atoms: _975  and  _976
REMARK  397  A    between atoms: _981  and  _983
REMARK  398  A    between atoms: _983  and  _984
REMARK  399  A    between atoms: _983  and  _986
REMARK  400  A    between atoms: _986  and  _987
REMARK  401  A    between atoms: _987  and  _988
REMARK  402  A    between atoms: _988  and  _989
REMARK  403  A    between atoms: _989  and  _990
REMARK  404  A    between atoms: _994  and  _996
REMARK  405  A    between atoms: _996  and  _997
REMARK  406  A    between atoms: _996  and  _999
REMARK  407  A    between atoms: _999  and  _1000
REMARK  408  A    between atoms: _1005  and  _1006
REMARK  409  A    between atoms: _1008  and  _1010
REMARK  410  A    between atoms: _1010  and  _1011
REMARK  411  A    between atoms: _1014  and  _1016
REMARK  412  A    between atoms: _1016  and  _1017
REMARK  413  A    between atoms: _1019  and  _1021
REMARK  414  A    between atoms: _1021  and  _1022
REMARK  415  A    between atoms: _1021  and  _1024
REMARK  416  A    between atoms: _1024  and  _1025
REMARK  417  A    between atoms: _1025  and  _1026
REMARK  418  A    between atoms: _1029  and  _1031
REMARK  419  A    between atoms: _1031  and  _1032
REMARK  420  A    between atoms: _1031  and  _1034
REMARK  421  A    between atoms: _1034  and  _1035
REMARK                            x       y       z     vdW  Elec       q    Type
REMARK                         _______ _______ _______ _____ _____    ______ ____
ROOT
ATOM      1  O   HOH     1      32.062  46.579  36.504  0.00  0.00    +0.000 OA
ENDROOT
TORSDOF 0
REMARK  Name = ../refined-set-2016/2xef/2xef_pocket.pdb
REMARK  421 active torsions:
REMARK  status: ('A' for Active; 'I' for Inactive)
REMARK    1  A    between atoms: _1  and  _3
REMARK    2  A    between atoms: _3  and  _4
REMARK    3  A    between atoms: _7  and  _9
REMARK    4  A    between atoms: _9  and  _10
REMARK    5  A    between atoms: _9  and  _12
REMARK    6  A    between atoms: _12  and  _13
REMARK    7  A    between atoms: _19  and  _21
REMARK    8  A    between atoms: _21  and  _22
REMARK    9  A    between atoms: _21  and  _24
REMARK   10  A    between atoms: _24  and  _25
REMARK   11  A    between atoms: _30  and  _31
REMARK   12  A    between atoms: _33  and  _35
REMARK   13  A    between atoms: _35  and  _36
REMARK   14  A    between atoms: _38  and  _40
REMARK   15  A    between atoms: _40  and  _41
REMARK   16  A    between atoms: _40  and  _43
REMARK   17  A    between atoms: _43  and  _44
REMARK   18  A    between atoms: _44  and  _45
REMARK   19  A    between atoms: _45  and  _46
REMARK   20  A    between atoms: _46  and  _47
REMARK   21  A    between atoms: _51  and  _53
REMARK   22  A    between atoms: _53  and  _54
REMARK   23  A    between atoms: _53  and  _56
REMARK   24  A    between atoms: _59  and  _61
REMARK   25  A    between atoms: _61  and  _62
REMARK   26  A    between atoms: _61  and  _64
REMARK   27  A    between atoms: _64  and  _65
REMARK   28  A    between atoms: _71  and  _73
REMARK   29  A    between atoms: _73  and  _74
REMARK   30  A    between atoms: _73  and  _76
REMARK   31  A    between atoms: _76  and  _77
REMARK   32  A    between atoms: _77  and  _78
REMARK   33  A    between atoms: _78  and  _79
REMARK   34  A    between atoms: _88  and  _90
REMARK   35  A    between atoms: _90  and  _91
REMARK   36  A    between atoms: _93  and  _95
REMARK   37  A    between atoms: _95  and  _96
REMARK   38  A    between atoms: _95  and  _98
REMARK   39  A    between atoms: _98  and  _99
REMARK   40  A    between atoms: _99  and  _100
REMARK   41  A    between atoms: _100  and  _101
REMARK   42  A    between atoms: _101  and  _102
REMARK   43  A    between atoms: _106  and  _108
REMARK   44  A    between atoms: _108  and  _109
REMARK   45  A    between atoms: _108  and  _111
REMARK   46  A    between atoms: _111  and  _112
REMARK   47  A    between atoms: _117  and  _118
REMARK   48  A    between atoms: _120  and  _122
REMARK   49  A    between atoms: _122  and  _123
REMARK   50  A    between atoms: _122  and  _125
REMARK   51  A    between atoms: _125  and  _126
REMARK   52  A    between atoms: _126  and  _127
REMARK   53  A    between atoms: _132  and  _134
REMARK   54  A    between atoms: _134  and  _135
REMARK   55  A    between atoms: _134  and  _137
REMARK   56  A    between atoms: _137  and  _138
REMARK   57  A    between atoms: _138  and  _139
REMARK   58  A    between atoms: _139  and  _140
REMARK   59  A    between atoms: _149  and  _151
REMARK   60  A    between atoms: _151  and  _152
REMARK   61  A    between atoms: _154  and  _156
REMARK   62  A    between atoms: _156  and  _157
REMARK   63  A    between atoms: _156  and  _159
REMARK   64  A    between atoms: _159  and  _160
REMARK   65  A    between atoms: _165  and  _167
REMARK   66  A    between atoms: _167  and  _168
REMARK   67  A    between atoms: _167  and  _170
REMARK   68  A    between atoms: _170  and  _171
REMARK   69  A    between atoms: _174  and  _176
REMARK   70  A    between atoms: _176  and  _177
REMARK   71  A    between atoms: _176  and  _179
REMARK   72  A    between atoms: _179  and  _180
REMARK   73  A    between atoms: _183  and  _185
REMARK   74  A    between atoms: _185  and  _186
REMARK   75  A    between atoms: _185  and  _188
REMARK   76  A    between atoms: _188  and  _189
REMARK   77  A    between atoms: _194  and  _196
REMARK   78  A    between atoms: _196  and  _197
REMARK   79  A    between atoms: _196  and  _199
REMARK   80  A    between atoms: _199  and  _200
REMARK   81  A    between atoms: _203  and  _205
REMARK   82  A    between atoms: _205  and  _206
REMARK   83  A    between atoms: _205  and  _208
REMARK   84  A    between atoms: _208  and  _209
REMARK   85  A    between atoms: _214  and  _216
REMARK   86  A    between atoms: _216  and  _217
REMARK   87  A    between atoms: _219  and  _221
REMARK   88  A    between atoms: _221  and  _222
REMARK   89  A    between atoms: _224  and  _226
REMARK   90  A    between atoms: _226  and  _227
REMARK   91  A    between atoms: _226  and  _229
REMARK   92  A    between atoms: _229  and  _230
REMARK   93  A    between atoms: _234  and  ZN_1038
REMARK   94  A    between atoms: _235  and  _237
REMARK   95  A    between atoms: _237  and  _238
REMARK   96  A    between atoms: _237  and  _240
REMARK   97  A    between atoms: _240  and  _241
REMARK   98  A    between atoms: _244  and  _246
REMARK   99  A    between atoms: _246  and  _247
REMARK  100  A    between atoms: _246  and  _249
REMARK  101  A    between atoms: _249  and  _250
REMARK  102  A    between atoms: _260  and  _262
REMARK  103  A    between atoms: _262  and  _263
REMARK  104  A    between atoms: _262  and  _265
REMARK  105  A    between atoms: _265  and  _266
REMARK  106  A    between atoms: _269  and  _271
REMARK  107  A    between atoms: _271  and  _272
REMARK  108  A    between atoms: _271  and  _274
REMARK  109  A    between atoms: _274  and  _275
REMARK  110  A    between atoms: _279  and  _280
REMARK  111  A    between atoms: _285  and  _287
REMARK  112  A    between atoms: _287  and  _288
REMARK  113  A    between atoms: _291  and  _293
REMARK  114  A    between atoms: _293  and  _294
REMARK  115  A    between atoms: _293  and  _296
REMARK  116  A    between atoms: _296  and  _297
REMARK  117  A    between atoms: _297  and  _298
REMARK  118  A    between atoms: _301  and  _303
REMARK  119  A    between atoms: _303  and  _304
REMARK  120  A    between atoms: _303  and  _306
REMARK  121  A    between atoms: _306  and  _307
REMARK  122  A    between atoms: _307  and  _308
REMARK  123  A    between atoms: _308  and  _310
REMARK  124  A    between atoms: _310  and  ZN_1037
REMARK  125  A    between atoms: _311  and  _313
REMARK  126  A    between atoms: _313  and  _314
REMARK  127  A    between atoms: _313  and  _316
REMARK  128  A    between atoms: _316  and  _317
REMARK  129  A    between atoms: _323  and  _325
REMARK  130  A    between atoms: _325  and  _326
REMARK  131  A    between atoms: _328  and  _330
REMARK  132  A    between atoms: _330  and  _331
REMARK  133  A    between atoms: _330  and  _333
REMARK  134  A    between atoms: _333  and  _334
REMARK  135  A    between atoms: _337  and  _339
REMARK  136  A    between atoms: _339  and  _340
REMARK  137  A    between atoms: _339  and  _342
REMARK  138  A    between atoms: _342  and  _343
REMARK  139  A    between atoms: _346  and  _348
REMARK  140  A    between atoms: _348  and  _349
REMARK  141  A    between atoms: _348  and  _351
REMARK  142  A    between atoms: _351  and  _352
REMARK  143  A    between atoms: _357  and  _359
REMARK  144  A    between atoms: _359  and  _360
REMARK  145  A    between atoms: _359  and  _362
REMARK  146  A    between atoms: _362  and  _363
REMARK  147  A    between atoms: _363  and  _365
REMARK  148  A    between atoms: _365  and  ZN_1038
REMARK  149  A    between atoms: _366  and  _368
REMARK  150  A    between atoms: _368  and  _369
REMARK  151  A    between atoms: _368  and  _371
REMARK  152  A    between atoms: _371  and  _372
REMARK  153  A    between atoms: _374  and  _376
REMARK  154  A    between atoms: _376  and  _377
REMARK  155  A    between atoms: _376  and  _379
REMARK  156  A    between atoms: _379  and  _380
REMARK  157  A    between atoms: _382  and  _384
REMARK  158  A    between atoms: _384  and  _385
REMARK  159  A    between atoms: _384  and  _387
REMARK  160  A    between atoms: _387  and  _388
REMARK  161  A    between atoms: _391  and  _393
REMARK  162  A    between atoms: _393  and  _394
REMARK  163  A    between atoms: _393  and  _396
REMARK  164  A    between atoms: _396  and  _397
REMARK  165  A    between atoms: _397  and  _398
REMARK  166  A    between atoms: _401  and  _403
REMARK  167  A    between atoms: _403  and  _404
REMARK  168  A    between atoms: _403  and  _406
REMARK  169  A    between atoms: _406  and  _407
REMARK  170  A    between atoms: _412  and  _413
REMARK  171  A    between atoms: _415  and  _417
REMARK  172  A    between atoms: _417  and  _418
REMARK  173  A    between atoms: _417  and  _420
REMARK  174  A    between atoms: _420  and  _421
REMARK  175  A    between atoms: _424  and  _426
REMARK  176  A    between atoms: _426  and  _427
REMARK  177  A    between atoms: _426  and  _429
REMARK  178  A    between atoms: _429  and  _430
REMARK  179  A    between atoms: _433  and  _435
REMARK  180  A    between atoms: _435  and  _436
REMARK  181  A    between atoms: _435  and  _438
REMARK  182  A    between atoms: _438  and  _439
REMARK  183  A    between atoms: _439  and  _440
REMARK  184  A    between atoms: _440  and  _441
REMARK  185  A    between atoms: _450  and  _452
REMARK  186  A    between atoms: _452  and  _453
REMARK  187  A    between atoms: _452  and  _455
REMARK  188  A    between atoms: _458  and  _460
REMARK  189  A    between atoms: _460  and  _461
REMARK  190  A    between atoms: _460  and  _463
REMARK  191  A    between atoms: _463  and  _464
REMARK  192  A    between atoms: _467  and  _469
REMARK  193  A    between atoms: _469  and  _470
REMARK  194  A    between atoms: _469  and  _472
REMARK  195  A    between atoms: _474  and  _476
REMARK  196  A    between atoms: _476  and  _477
REMARK  197  A    between atoms: _476  and  _479
REMARK  198  A    between atoms: _479  and  _480
REMARK  199  A    between atoms: _490  and  _492
REMARK  200  A    between atoms: _492  and  _493
REMARK  201  A    between atoms: _492  and  _495
REMARK  202  A    between atoms: _495  and  _496
REMARK  203  A    between atoms: _496  and  _497
REMARK  204  A    between atoms: _497  and  _498
REMARK  205  A    between atoms: _498  and  _499
REMARK  206  A    between atoms: _503  and  _505
REMARK  207  A    between atoms: _505  and  _506
REMARK  208  A    between atoms: _505  and  _508
REMARK  209  A    between atoms: _508  and  _509
REMARK  210  A    between atoms: _512  and  _513
REMARK  211  A    between atoms: _519  and  _520
REMARK  212  A    between atoms: _525  and  _527
REMARK  213  A    between atoms: _527  and  _528
REMARK  214  A    between atoms: _527  and  _530
REMARK  215  A    between atoms: _530  and  _531
REMARK  216  A    between atoms: _531  and  _532
REMARK  217  A    between atoms: _535  and  _537
REMARK  218  A    between atoms: _537  and  _538
REMARK  219  A    between atoms: _537  and  _540
REMARK  220  A    between atoms: _540  and  _541
REMARK  221  A    between atoms: _541  and  _542
REMARK  222  A    between atoms: _542  and  _543
REMARK  223  A    between atoms: _552  and  _554
REMARK  224  A    between atoms: _554  and  _555
REMARK  225  A    between atoms: _554  and  _557
REMARK  226  A    between atoms: _557  and  _558
REMARK  227  A    between atoms: _561  and  _563
REMARK  228  A    between atoms: _563  and  _564
REMARK  229  A    between atoms: _563  and  _566
REMARK  230  A    between atoms: _566  and  _567
REMARK  231  A    between atoms: _569  and  _571
REMARK  232  A    between atoms: _571  and  _572
REMARK  233  A    between atoms: _571  and  _574
REMARK  234  A    between atoms: _574  and  _575
REMARK  235  A    between atoms: _575  and  _576
REMARK  236  A    between atoms: _576  and  _577
REMARK  237  A    between atoms: _577  and  _578
REMARK  238  A    between atoms: _582  and  _584
REMARK  239  A    between atoms: _584  and  _585
REMARK  240  A    between atoms: _584  and  _587
REMARK  241  A    between atoms: _587  and  _588
REMARK  242  A    between atoms: _591  and  _593
REMARK  243  A    between atoms: _593  and  _594
REMARK  244  A    between atoms: _596  and  _598
REMARK  245  A    between atoms: _598  and  _599
REMARK  246  A    between atoms: _598  and  _601
REMARK  247  A    between atoms: _601  and  _602
REMARK  248  A    between atoms: _604  and  _606
REMARK  249  A    between atoms: _606  and  _607
REMARK  250  A    between atoms: _609  and  _611
REMARK  251  A    between atoms: _611  and  _612
REMARK  252  A    between atoms: _611  and  _614
REMARK  253  A    between atoms: _614  and  _615
REMARK  254  A    between atoms: _620  and  _622
REMARK  255  A    between atoms: _622  and  _623
REMARK  256  A    between atoms: _622  and  _625
REMARK  257  A    between atoms: _625  and  _626
REMARK  258  A    between atoms: _629  and  _631
REMARK  259  A    between atoms: _631  and  _632
REMARK  260  A    between atoms: _631  and  _634
REMARK  261  A    between atoms: _634  and  _635
REMARK  262  A    between atoms: _641  and  _643
REMARK  263  A    between atoms: _643  and  _644
REMARK  264  A    between atoms: _643  and  _646
REMARK  265  A    between atoms: _646  and  _647
REMARK  266  A    between atoms: _647  and  _648
REMARK  267  A    between atoms: _651  and  _653
REMARK  268  A    between atoms: _653  and  _654
REMARK  269  A    between atoms: _653  and  _656
REMARK  270  A    between atoms: _656  and  _657
REMARK  271  A    between atoms: _657  and  _658
REMARK  272  A    between atoms: _663  and  _665
REMARK  273  A    between atoms: _665  and  _666
REMARK  274  A    between atoms: _665  and  _668
REMARK  275  A    between atoms: _668  and  _669
REMARK  276  A    between atoms: _669  and  _670
REMARK  277  A    between atoms: _670  and  _671
REMARK  278  A    between atoms: _680  and  _682
REMARK  279  A    between atoms: _682  and  _683
REMARK  280  A    between atoms: _682  and  _685
REMARK  281  A    between atoms: _685  and  _686
REMARK  282  A    between atoms: _686  and  _687
REMARK  283  A    between atoms: _687  and  _688
REMARK  284  A    between atoms: _697  and  _699
REMARK  285  A    between atoms: _699  and  _700
REMARK  286  A    between atoms: _699  and  _702
REMARK  287  A    between atoms: _702  and  _703
REMARK  288  A    between atoms: _708  and  _709
REMARK  289  A    between atoms: _711  and  _713
REMARK  290  A    between atoms: _713  and  _714
REMARK  291  A    between atoms: _713  and  _716
REMARK  292  A    between atoms: _716  and  _717
REMARK  293  A    between atoms: _720  and  _722
REMARK  294  A    between atoms: _722  and  _723
REMARK  295  A    between atoms: _722  and  _725
REMARK  296  A    between atoms: _725  and  _726
REMARK  297  A    between atoms: _726  and  _727
REMARK  298  A    between atoms: _727  and  _728
REMARK  299  A    between atoms: _728  and  _729
REMARK  300  A    between atoms: _733  and  _735
REMARK  301  A    between atoms: _735  and  _736
REMARK  302  A    between atoms: _735  and  _738
REMARK  303  A    between atoms: _738  and  _739
REMARK  304  A    between atoms: _744  and  _746
REMARK  305  A    between atoms: _746  and  _747
REMARK  306  A    between atoms: _746  and  _749
REMARK  307  A    between atoms: _749  and  _750
REMARK  308  A    between atoms: _760  and  _762
REMARK  309  A    between atoms: _762  and  _763
REMARK  310  A    between atoms: _762  and  _765
REMARK  311  A    between atoms: _765  and  _766
REMARK  312  A    between atoms: _766  and  _767
REMARK  313  A    between atoms: _770  and  _772
REMARK  314  A    between atoms: _772  and  _773
REMARK  315  A    between atoms: _772  and  _775
REMARK  316  A    between atoms: _775  and  _776
REMARK  317  A    between atoms: _779  and  _781
REMARK  318  A    between atoms: _781  and  _782
REMARK  319  A    between atoms: _781  and  _784
REMARK  320  A    between atoms: _784  and  _785
REMARK  321  A    between atoms: _790  and  _792
REMARK  322  A    between atoms: _792  and  _793
REMARK  323  A    between atoms: _792  and  _795
REMARK  324  A    between atoms: _795  and  _796
REMARK  325  A    between atoms: _802  and  _804
REMARK  326  A    between atoms: _804  and  _805
REMARK  327  A    between atoms: _804  and  _807
REMARK  328  A    between atoms: _807  and  _808
REMARK  329  A    between atoms: _810  and  _812
REMARK  330  A    between atoms: _812  and  _813
REMARK  331  A    between atoms: _815  and  _817
REMARK  332  A    between atoms: _817  and  _818
REMARK  333  A    between atoms: _817  and  _820
REMARK  334  A    between atoms: _820  and  _821
REMARK  335  A    between atoms: _826  and  _827
REMARK  336  A    between atoms: _829  and  _831
REMARK  337  A    between atoms: _831  and  _832
REMARK  338  A    between atoms: _831  and  _834
REMARK  339  A    between atoms: _834  and  _835
REMARK  340  A    between atoms: _840  and  _841
REMARK  341  A    between atoms: _843  and  _845
REMARK  342  A    between atoms: _845  and  _846
REMARK  343  A    between atoms: _845  and  _848
REMARK  344  A    between atoms: _848  and  _849
REMARK  345  A    between atoms: _853  and  ZN_1037
REMARK  346  A    between atoms: _854  and  _856
REMARK  347  A    between atoms: _856  and  _857
REMARK  348  A    between atoms: _856  and  _859
REMARK  349  A    between atoms: _859  and  _860
REMARK  350  A    between atoms: _860  and  _861
REMARK  351  A    between atoms: _864  and  _866
REMARK  352  A    between atoms: _866  and  _867
REMARK  353  A    between atoms: _866  and  _869
REMARK  354  A    between atoms: _869  and  _870
REMARK  355  A    between atoms: _870  and  _871
REMARK  356  A    between atoms: _871  and  _872
REMARK  357  A    between atoms: _881  and  _883
REMARK  358  A    between atoms: _883  and  _884
REMARK  359  A    between atoms: _883  and  _886
REMARK  360  A    between atoms: _886  and  _887
REMARK  361  A    between atoms: _887  and  _888
REMARK  362  A    between atoms: _888  and  _889
REMARK  363  A    between atoms: _889  and  _890
REMARK  364  A    between atoms: _894  and  _896
REMARK  365  A    between atoms: _896  and  _897
REMARK  366  A    between atoms: _896  and  _899
REMARK  367  A    between atoms: _899  and  _900
REMARK  368  A    between atoms: _905  and  _906
REMARK  369  A    between atoms: _908  and  _910
REMARK  370  A    between atoms: _910  and  _911
REMARK  371  A    between atoms: _910  and  _913
REMARK  372  A    between atoms: _913  and  _914
REMARK  373  A    between atoms: _914  and  _915
REMARK  374  A    between atoms: _915  and  _916
REMARK  375  A    between atoms: _916  and  _917
REMARK  376  A    between atoms: _921  and  _923
REMARK  377  A    between atoms: _923  and  _924
REMARK  378  A    between atoms: _923  and  _926
REMARK  379  A    between atoms: _926  and  _927
REMARK  380  A    between atoms: _932  and  _933
REMARK  381  A    between atoms: _935  and  _937
REMARK  382  A    between atoms: _937  and  _938
REMARK  383  A    between atoms: _937  and  _940
REMARK  384  A    between atoms: _940  and  _941
REMARK  385  A    between atoms: _946  and  _947
REMARK  386  A    between atoms: _949  and  _951
REMARK  387  A    between atoms: _951  and  _952
REMARK  388  A    between atoms: _956  and  _957
REMARK  389  A    between atoms: _962  and  _964
REMARK  390  A    between atoms: _964  and  _965
REMARK  391  A    between atoms: _964  and  _967
REMARK  392  A    between atoms: _967  and  _968
REMARK  393  A    between atoms: _970  and  _972
REMARK  394  A    between atoms: _972  and  _973
REMARK  395  A    between atoms: _972  and  _975
REMARK  396  A    between atoms: _975  and  _976
REMARK  397  A    between atoms: _981  and  _983
REMARK  398  A    between atoms: _983  and  _984
REMARK  399  A    between atoms: _983  and  _986
REMARK  400  A    between atoms: _986  and  _987
REMARK  401  A    between atoms: _987  and  _988
REMARK  402  A    between atoms: _988  and  _989
REMARK  403  A    between atoms: _989  and  _990
REMARK  404  A    between atoms: _994  and  _996
REMARK  405  A    between atoms: _996  and  _997
REMARK  406  A    between atoms: _996  and  _999
REMARK  407  A    between atoms: _999  and  _1000
REMARK  408  A    between atoms: _1005  and  _1006
REMARK  409  A    between atoms: _1008  and  _1010
REMARK  410  A    between atoms: _1010  and  _1011
REMARK  411  A    between atoms: _1014  and  _1016
REMARK  412  A    between atoms: _1016  and  _1017
REMARK  413  A    between atoms: _1019  and  _1021
REMARK  414  A    between atoms: _1021  and  _1022
REMARK  415  A    between atoms: _1021  and  _1024
REMARK  416  A    between atoms: _1024  and  _1025
REMARK  417  A    between atoms: _1025  and  _1026
REMARK  418  A    between atoms: _1029  and  _1031
REMARK  419  A    between atoms: _1031  and  _1032
REMARK  420  A    between atoms: _1031  and  _1034
REMARK  421  A    between atoms: _1034  and  _1035
REMARK                            x       y       z     vdW  Elec       q    Type
REMARK                         _______ _______ _______ _____ _____    ______ ____
ROOT
ATOM      1  O   HOH     1      25.401  43.769  38.367  0.00  0.00    +0.000 OA
ENDROOT
TORSDOF 0
REMARK  Name = ../refined-set-2016/2xef/2xef_pocket.pdb
REMARK  421 active torsions:
REMARK  status: ('A' for Active; 'I' for Inactive)
REMARK    1  A    between atoms: _1  and  _3
REMARK    2  A    between atoms: _3  and  _4
REMARK    3  A    between atoms: _7  and  _9
REMARK    4  A    between atoms: _9  and  _10
REMARK    5  A    between atoms: _9  and  _12
REMARK    6  A    between atoms: _12  and  _13
REMARK    7  A    between atoms: _19  and  _21
REMARK    8  A    between atoms: _21  and  _22
REMARK    9  A    between atoms: _21  and  _24
REMARK   10  A    between atoms: _24  and  _25
REMARK   11  A    between atoms: _30  and  _31
REMARK   12  A    between atoms: _33  and  _35
REMARK   13  A    between atoms: _35  and  _36
REMARK   14  A    between atoms: _38  and  _40
REMARK   15  A    between atoms: _40  and  _41
REMARK   16  A    between atoms: _40  and  _43
REMARK   17  A    between atoms: _43  and  _44
REMARK   18  A    between atoms: _44  and  _45
REMARK   19  A    between atoms: _45  and  _46
REMARK   20  A    between atoms: _46  and  _47
REMARK   21  A    between atoms: _51  and  _53
REMARK   22  A    between atoms: _53  and  _54
REMARK   23  A    between atoms: _53  and  _56
REMARK   24  A    between atoms: _59  and  _61
REMARK   25  A    between atoms: _61  and  _62
REMARK   26  A    between atoms: _61  and  _64
REMARK   27  A    between atoms: _64  and  _65
REMARK   28  A    between atoms: _71  and  _73
REMARK   29  A    between atoms: _73  and  _74
REMARK   30  A    between atoms: _73  and  _76
REMARK   31  A    between atoms: _76  and  _77
REMARK   32  A    between atoms: _77  and  _78
REMARK   33  A    between atoms: _78  and  _79
REMARK   34  A    between atoms: _88  and  _90
REMARK   35  A    between atoms: _90  and  _91
REMARK   36  A    between atoms: _93  and  _95
REMARK   37  A    between atoms: _95  and  _96
REMARK   38  A    between atoms: _95  and  _98
REMARK   39  A    between atoms: _98  and  _99
REMARK   40  A    between atoms: _99  and  _100
REMARK   41  A    between atoms: _100  and  _101
REMARK   42  A    between atoms: _101  and  _102
REMARK   43  A    between atoms: _106  and  _108
REMARK   44  A    between atoms: _108  and  _109
REMARK   45  A    between atoms: _108  and  _111
REMARK   46  A    between atoms: _111  and  _112
REMARK   47  A    between atoms: _117  and  _118
REMARK   48  A    between atoms: _120  and  _122
REMARK   49  A    between atoms: _122  and  _123
REMARK   50  A    between atoms: _122  and  _125
REMARK   51  A    between atoms: _125  and  _126
REMARK   52  A    between atoms: _126  and  _127
REMARK   53  A    between atoms: _132  and  _134
REMARK   54  A    between atoms: _134  and  _135
REMARK   55  A    between atoms: _134  and  _137
REMARK   56  A    between atoms: _137  and  _138
REMARK   57  A    between atoms: _138  and  _139
REMARK   58  A    between atoms: _139  and  _140
REMARK   59  A    between atoms: _149  and  _151
REMARK   60  A    between atoms: _151  and  _152
REMARK   61  A    between atoms: _154  and  _156
REMARK   62  A    between atoms: _156  and  _157
REMARK   63  A    between atoms: _156  and  _159
REMARK   64  A    between atoms: _159  and  _160
REMARK   65  A    between atoms: _165  and  _167
REMARK   66  A    between atoms: _167  and  _168
REMARK   67  A    between atoms: _167  and  _170
REMARK   68  A    between atoms: _170  and  _171
REMARK   69  A    between atoms: _174  and  _176
REMARK   70  A    between atoms: _176  and  _177
REMARK   71  A    between atoms: _176  and  _179
REMARK   72  A    between atoms: _179  and  _180
REMARK   73  A    between atoms: _183  and  _185
REMARK   74  A    between atoms: _185  and  _186
REMARK   75  A    between atoms: _185  and  _188
REMARK   76  A    between atoms: _188  and  _189
REMARK   77  A    between atoms: _194  and  _196
REMARK   78  A    between atoms: _196  and  _197
REMARK   79  A    between atoms: _196  and  _199
REMARK   80  A    between atoms: _199  and  _200
REMARK   81  A    between atoms: _203  and  _205
REMARK   82  A    between atoms: _205  and  _206
REMARK   83  A    between atoms: _205  and  _208
REMARK   84  A    between atoms: _208  and  _209
REMARK   85  A    between atoms: _214  and  _216
REMARK   86  A    between atoms: _216  and  _217
REMARK   87  A    between atoms: _219  and  _221
REMARK   88  A    between atoms: _221  and  _222
REMARK   89  A    between atoms: _224  and  _226
REMARK   90  A    between atoms: _226  and  _227
REMARK   91  A    between atoms: _226  and  _229
REMARK   92  A    between atoms: _229  and  _230
REMARK   93  A    between atoms: _234  and  ZN_1038
REMARK   94  A    between atoms: _235  and  _237
REMARK   95  A    between atoms: _237  and  _238
REMARK   96  A    between atoms: _237  and  _240
REMARK   97  A    between atoms: _240  and  _241
REMARK   98  A    between atoms: _244  and  _246
REMARK   99  A    between atoms: _246  and  _247
REMARK  100  A    between atoms: _246  and  _249
REMARK  101  A    between atoms: _249  and  _250
REMARK  102  A    between atoms: _260  and  _262
REMARK  103  A    between atoms: _262  and  _263
REMARK  104  A    between atoms: _262  and  _265
REMARK  105  A    between atoms: _265  and  _266
REMARK  106  A    between atoms: _269  and  _271
REMARK  107  A    between atoms: _271  and  _272
REMARK  108  A    between atoms: _271  and  _274
REMARK  109  A    between atoms: _274  and  _275
REMARK  110  A    between atoms: _279  and  _280
REMARK  111  A    between atoms: _285  and  _287
REMARK  112  A    between atoms: _287  and  _288
REMARK  113  A    between atoms: _291  and  _293
REMARK  114  A    between atoms: _293  and  _294
REMARK  115  A    between atoms: _293  and  _296
REMARK  116  A    between atoms: _296  and  _297
REMARK  117  A    between atoms: _297  and  _298
REMARK  118  A    between atoms: _301  and  _303
REMARK  119  A    between atoms: _303  and  _304
REMARK  120  A    between atoms: _303  and  _306
REMARK  121  A    between atoms: _306  and  _307
REMARK  122  A    between atoms: _307  and  _308
REMARK  123  A    between atoms: _308  and  _310
REMARK  124  A    between atoms: _310  and  ZN_1037
REMARK  125  A    between atoms: _311  and  _313
REMARK  126  A    between atoms: _313  and  _314
REMARK  127  A    between atoms: _313  and  _316
REMARK  128  A    between atoms: _316  and  _317
REMARK  129  A    between atoms: _323  and  _325
REMARK  130  A    between atoms: _325  and  _326
REMARK  131  A    between atoms: _328  and  _330
REMARK  132  A    between atoms: _330  and  _331
REMARK  133  A    between atoms: _330  and  _333
REMARK  134  A    between atoms: _333  and  _334
REMARK  135  A    between atoms: _337  and  _339
REMARK  136  A    between atoms: _339  and  _340
REMARK  137  A    between atoms: _339  and  _342
REMARK  138  A    between atoms: _342  and  _343
REMARK  139  A    between atoms: _346  and  _348
REMARK  140  A    between atoms: _348  and  _349
REMARK  141  A    between atoms: _348  and  _351
REMARK  142  A    between atoms: _351  and  _352
REMARK  143  A    between atoms: _357  and  _359
REMARK  144  A    between atoms: _359  and  _360
REMARK  145  A    between atoms: _359  and  _362
REMARK  146  A    between atoms: _362  and  _363
REMARK  147  A    between atoms: _363  and  _365
REMARK  148  A    between atoms: _365  and  ZN_1038
REMARK  149  A    between atoms: _366  and  _368
REMARK  150  A    between atoms: _368  and  _369
REMARK  151  A    between atoms: _368  and  _371
REMARK  152  A    between atoms: _371  and  _372
REMARK  153  A    between atoms: _374  and  _376
REMARK  154  A    between atoms: _376  and  _377
REMARK  155  A    between atoms: _376  and  _379
REMARK  156  A    between atoms: _379  and  _380
REMARK  157  A    between atoms: _382  and  _384
REMARK  158  A    between atoms: _384  and  _385
REMARK  159  A    between atoms: _384  and  _387
REMARK  160  A    between atoms: _387  and  _388
REMARK  161  A    between atoms: _391  and  _393
REMARK  162  A    between atoms: _393  and  _394
REMARK  163  A    between atoms: _393  and  _396
REMARK  164  A    between atoms: _396  and  _397
REMARK  165  A    between atoms: _397  and  _398
REMARK  166  A    between atoms: _401  and  _403
REMARK  167  A    between atoms: _403  and  _404
REMARK  168  A    between atoms: _403  and  _406
REMARK  169  A    between atoms: _406  and  _407
REMARK  170  A    between atoms: _412  and  _413
REMARK  171  A    between atoms: _415  and  _417
REMARK  172  A    between atoms: _417  and  _418
REMARK  173  A    between atoms: _417  and  _420
REMARK  174  A    between atoms: _420  and  _421
REMARK  175  A    between atoms: _424  and  _426
REMARK  176  A    between atoms: _426  and  _427
REMARK  177  A    between atoms: _426  and  _429
REMARK  178  A    between atoms: _429  and  _430
REMARK  179  A    between atoms: _433  and  _435
REMARK  180  A    between atoms: _435  and  _436
REMARK  181  A    between atoms: _435  and  _438
REMARK  182  A    between atoms: _438  and  _439
REMARK  183  A    between atoms: _439  and  _440
REMARK  184  A    between atoms: _440  and  _441
REMARK  185  A    between atoms: _450  and  _452
REMARK  186  A    between atoms: _452  and  _453
REMARK  187  A    between atoms: _452  and  _455
REMARK  188  A    between atoms: _458  and  _460
REMARK  189  A    between atoms: _460  and  _461
REMARK  190  A    between atoms: _460  and  _463
REMARK  191  A    between atoms: _463  and  _464
REMARK  192  A    between atoms: _467  and  _469
REMARK  193  A    between atoms: _469  and  _470
REMARK  194  A    between atoms: _469  and  _472
REMARK  195  A    between atoms: _474  and  _476
REMARK  196  A    between atoms: _476  and  _477
REMARK  197  A    between atoms: _476  and  _479
REMARK  198  A    between atoms: _479  and  _480
REMARK  199  A    between atoms: _490  and  _492
REMARK  200  A    between atoms: _492  and  _493
REMARK  201  A    between atoms: _492  and  _495
REMARK  202  A    between atoms: _495  and  _496
REMARK  203  A    between atoms: _496  and  _497
REMARK  204  A    between atoms: _497  and  _498
REMARK  205  A    between atoms: _498  and  _499
REMARK  206  A    between atoms: _503  and  _505
REMARK  207  A    between atoms: _505  and  _506
REMARK  208  A    between atoms: _505  and  _508
REMARK  209  A    between atoms: _508  and  _509
REMARK  210  A    between atoms: _512  and  _513
REMARK  211  A    between atoms: _519  and  _520
REMARK  212  A    between atoms: _525  and  _527
REMARK  213  A    between atoms: _527  and  _528
REMARK  214  A    between atoms: _527  and  _530
REMARK  215  A    between atoms: _530  and  _531
REMARK  216  A    between atoms: _531  and  _532
REMARK  217  A    between atoms: _535  and  _537
REMARK  218  A    between atoms: _537  and  _538
REMARK  219  A    between atoms: _537  and  _540
REMARK  220  A    between atoms: _540  and  _541
REMARK  221  A    between atoms: _541  and  _542
REMARK  222  A    between atoms: _542  and  _543
REMARK  223  A    between atoms: _552  and  _554
REMARK  224  A    between atoms: _554  and  _555
REMARK  225  A    between atoms: _554  and  _557
REMARK  226  A    between atoms: _557  and  _558
REMARK  227  A    between atoms: _561  and  _563
REMARK  228  A    between atoms: _563  and  _564
REMARK  229  A    between atoms: _563  and  _566
REMARK  230  A    between atoms: _566  and  _567
REMARK  231  A    between atoms: _569  and  _571
REMARK  232  A    between atoms: _571  and  _572
REMARK  233  A    between atoms: _571  and  _574
REMARK  234  A    between atoms: _574  and  _575
REMARK  235  A    between atoms: _575  and  _576
REMARK  236  A    between atoms: _576  and  _577
REMARK  237  A    between atoms: _577  and  _578
REMARK  238  A    between atoms: _582  and  _584
REMARK  239  A    between atoms: _584  and  _585
REMARK  240  A    between atoms: _584  and  _587
REMARK  241  A    between atoms: _587  and  _588
REMARK  242  A    between atoms: _591  and  _593
REMARK  243  A    between atoms: _593  and  _594
REMARK  244  A    between atoms: _596  and  _598
REMARK  245  A    between atoms: _598  and  _599
REMARK  246  A    between atoms: _598  and  _601
REMARK  247  A    between atoms: _601  and  _602
REMARK  248  A    between atoms: _604  and  _606
REMARK  249  A    between atoms: _606  and  _607
REMARK  250  A    between atoms: _609  and  _611
REMARK  251  A    between atoms: _611  and  _612
REMARK  252  A    between atoms: _611  and  _614
REMARK  253  A    between atoms: _614  and  _615
REMARK  254  A    between atoms: _620  and  _622
REMARK  255  A    between atoms: _622  and  _623
REMARK  256  A    between atoms: _622  and  _625
REMARK  257  A    between atoms: _625  and  _626
REMARK  258  A    between atoms: _629  and  _631
REMARK  259  A    between atoms: _631  and  _632
REMARK  260  A    between atoms: _631  and  _634
REMARK  261  A    between atoms: _634  and  _635
REMARK  262  A    between atoms: _641  and  _643
REMARK  263  A    between atoms: _643  and  _644
REMARK  264  A    between atoms: _643  and  _646
REMARK  265  A    between atoms: _646  and  _647
REMARK  266  A    between atoms: _647  and  _648
REMARK  267  A    between atoms: _651  and  _653
REMARK  268  A    between atoms: _653  and  _654
REMARK  269  A    between atoms: _653  and  _656
REMARK  270  A    between atoms: _656  and  _657
REMARK  271  A    between atoms: _657  and  _658
REMARK  272  A    between atoms: _663  and  _665
REMARK  273  A    between atoms: _665  and  _666
REMARK  274  A    between atoms: _665  and  _668
REMARK  275  A    between atoms: _668  and  _669
REMARK  276  A    between atoms: _669  and  _670
REMARK  277  A    between atoms: _670  and  _671
REMARK  278  A    between atoms: _680  and  _682
REMARK  279  A    between atoms: _682  and  _683
REMARK  280  A    between atoms: _682  and  _685
REMARK  281  A    between atoms: _685  and  _686
REMARK  282  A    between atoms: _686  and  _687
REMARK  283  A    between atoms: _687  and  _688
REMARK  284  A    between atoms: _697  and  _699
REMARK  285  A    between atoms: _699  and  _700
REMARK  286  A    between atoms: _699  and  _702
REMARK  287  A    between atoms: _702  and  _703
REMARK  288  A    between atoms: _708  and  _709
REMARK  289  A    between atoms: _711  and  _713
REMARK  290  A    between atoms: _713  and  _714
REMARK  291  A    between atoms: _713  and  _716
REMARK  292  A    between atoms: _716  and  _717
REMARK  293  A    between atoms: _720  and  _722
REMARK  294  A    between atoms: _722  and  _723
REMARK  295  A    between atoms: _722  and  _725
REMARK  296  A    between atoms: _725  and  _726
REMARK  297  A    between atoms: _726  and  _727
REMARK  298  A    between atoms: _727  and  _728
REMARK  299  A    between atoms: _728  and  _729
REMARK  300  A    between atoms: _733  and  _735
REMARK  301  A    between atoms: _735  and  _736
REMARK  302  A    between atoms: _735  and  _738
REMARK  303  A    between atoms: _738  and  _739
REMARK  304  A    between atoms: _744  and  _746
REMARK  305  A    between atoms: _746  and  _747
REMARK  306  A    between atoms: _746  and  _749
REMARK  307  A    between atoms: _749  and  _750
REMARK  308  A    between atoms: _760  and  _762
REMARK  309  A    between atoms: _762  and  _763
REMARK  310  A    between atoms: _762  and  _765
REMARK  311  A    between atoms: _765  and  _766
REMARK  312  A    between atoms: _766  and  _767
REMARK  313  A    between atoms: _770  and  _772
REMARK  314  A    between atoms: _772  and  _773
REMARK  315  A    between atoms: _772  and  _775
REMARK  316  A    between atoms: _775  and  _776
REMARK  317  A    between atoms: _779  and  _781
REMARK  318  A    between atoms: _781  and  _782
REMARK  319  A    between atoms: _781  and  _784
REMARK  320  A    between atoms: _784  and  _785
REMARK  321  A    between atoms: _790  and  _792
REMARK  322  A    between atoms: _792  and  _793
REMARK  323  A    between atoms: _792  and  _795
REMARK  324  A    between atoms: _795  and  _796
REMARK  325  A    between atoms: _802  and  _804
REMARK  326  A    between atoms: _804  and  _805
REMARK  327  A    between atoms: _804  and  _807
REMARK  328  A    between atoms: _807  and  _808
REMARK  329  A    between atoms: _810  and  _812
REMARK  330  A    between atoms: _812  and  _813
REMARK  331  A    between atoms: _815  and  _817
REMARK  332  A    between atoms: _817  and  _818
REMARK  333  A    between atoms: _817  and  _820
REMARK  334  A    between atoms: _820  and  _821
REMARK  335  A    between atoms: _826  and  _827
REMARK  336  A    between atoms: _829  and  _831
REMARK  337  A    between atoms: _831  and  _832
REMARK  338  A    between atoms: _831  and  _834
REMARK  339  A    between atoms: _834  and  _835
REMARK  340  A    between atoms: _840  and  _841
REMARK  341  A    between atoms: _843  and  _845
REMARK  342  A    between atoms: _845  and  _846
REMARK  343  A    between atoms: _845  and  _848
REMARK  344  A    between atoms: _848  and  _849
REMARK  345  A    between atoms: _853  and  ZN_1037
REMARK  346  A    between atoms: _854  and  _856
REMARK  347  A    between atoms: _856  and  _857
REMARK  348  A    between atoms: _856  and  _859
REMARK  349  A    between atoms: _859  and  _860
REMARK  350  A    between atoms: _860  and  _861
REMARK  351  A    between atoms: _864  and  _866
REMARK  352  A    between atoms: _866  and  _867
REMARK  353  A    between atoms: _866  and  _869
REMARK  354  A    between atoms: _869  and  _870
REMARK  355  A    between atoms: _870  and  _871
REMARK  356  A    between atoms: _871  and  _872
REMARK  357  A    between atoms: _881  and  _883
REMARK  358  A    between atoms: _883  and  _884
REMARK  359  A    between atoms: _883  and  _886
REMARK  360  A    between atoms: _886  and  _887
REMARK  361  A    between atoms: _887  and  _888
REMARK  362  A    between atoms: _888  and  _889
REMARK  363  A    between atoms: _889  and  _890
REMARK  364  A    between atoms: _894  and  _896
REMARK  365  A    between atoms: _896  and  _897
REMARK  366  A    between atoms: _896  and  _899
REMARK  367  A    between atoms: _899  and  _900
REMARK  368  A    between atoms: _905  and  _906
REMARK  369  A    between atoms: _908  and  _910
REMARK  370  A    between atoms: _910  and  _911
REMARK  371  A    between atoms: _910  and  _913
REMARK  372  A    between atoms: _913  and  _914
REMARK  373  A    between atoms: _914  and  _915
REMARK  374  A    between atoms: _915  and  _916
REMARK  375  A    between atoms: _916  and  _917
REMARK  376  A    between atoms: _921  and  _923
REMARK  377  A    between atoms: _923  and  _924
REMARK  378  A    between atoms: _923  and  _926
REMARK  379  A    between atoms: _926  and  _927
REMARK  380  A    between atoms: _932  and  _933
REMARK  381  A    between atoms: _935  and  _937
REMARK  382  A    between atoms: _937  and  _938
REMARK  383  A    between atoms: _937  and  _940
REMARK  384  A    between atoms: _940  and  _941
REMARK  385  A    between atoms: _946  and  _947
REMARK  386  A    between atoms: _949  and  _951
REMARK  387  A    between atoms: _951  and  _952
REMARK  388  A    between atoms: _956  and  _957
REMARK  389  A    between atoms: _962  and  _964
REMARK  390  A    between atoms: _964  and  _965
REMARK  391  A    between atoms: _964  and  _967
REMARK  392  A    between atoms: _967  and  _968
REMARK  393  A    between atoms: _970  and  _972
REMARK  394  A    between atoms: _972  and  _973
REMARK  395  A    between atoms: _972  and  _975
REMARK  396  A    between atoms: _975  and  _976
REMARK  397  A    between atoms: _981  and  _983
REMARK  398  A    between atoms: _983  and  _984
REMARK  399  A    between atoms: _983  and  _986
REMARK  400  A    between atoms: _986  and  _987
REMARK  401  A    between atoms: _987  and  _988
REMARK  402  A    between atoms: _988  and  _989
REMARK  403  A    between atoms: _989  and  _990
REMARK  404  A    between atoms: _994  and  _996
REMARK  405  A    between atoms: _996  and  _997
REMARK  406  A    between atoms: _996  and  _999
REMARK  407  A    between atoms: _999  and  _1000
REMARK  408  A    between atoms: _1005  and  _1006
REMARK  409  A    between atoms: _1008  and  _1010
REMARK  410  A    between atoms: _1010  and  _1011
REMARK  411  A    between atoms: _1014  and  _1016
REMARK  412  A    between atoms: _1016  and  _1017
REMARK  413  A    between atoms: _1019  and  _1021
REMARK  414  A    between atoms: _1021  and  _1022
REMARK  415  A    between atoms: _1021  and  _1024
REMARK  416  A    between atoms: _1024  and  _1025
REMARK  417  A    between atoms: _1025  and  _1026
REMARK  418  A    between atoms: _1029  and  _1031
REMARK  419  A    between atoms: _1031  and  _1032
REMARK  420  A    between atoms: _1031  and  _1034
REMARK  421  A    between atoms: _1034  and  _1035
REMARK                            x       y       z     vdW  Elec       q    Type
REMARK                         _______ _______ _______ _____ _____    ______ ____
ROOT
ATOM      1  O   HOH     1      23.073  44.352  36.566  0.00  0.00    +0.000 OA
ENDROOT
TORSDOF 0
REMARK  Name = ../refined-set-2016/2xef/2xef_pocket.pdb
REMARK  421 active torsions:
REMARK  status: ('A' for Active; 'I' for Inactive)
REMARK    1  A    between atoms: _1  and  _3
REMARK    2  A    between atoms: _3  and  _4
REMARK    3  A    between atoms: _7  and  _9
REMARK    4  A    between atoms: _9  and  _10
REMARK    5  A    between atoms: _9  and  _12
REMARK    6  A    between atoms: _12  and  _13
REMARK    7  A    between atoms: _19  and  _21
REMARK    8  A    between atoms: _21  and  _22
REMARK    9  A    between atoms: _21  and  _24
REMARK   10  A    between atoms: _24  and  _25
REMARK   11  A    between atoms: _30  and  _31
REMARK   12  A    between atoms: _33  and  _35
REMARK   13  A    between atoms: _35  and  _36
REMARK   14  A    between atoms: _38  and  _40
REMARK   15  A    between atoms: _40  and  _41
REMARK   16  A    between atoms: _40  and  _43
REMARK   17  A    between atoms: _43  and  _44
REMARK   18  A    between atoms: _44  and  _45
REMARK   19  A    between atoms: _45  and  _46
REMARK   20  A    between atoms: _46  and  _47
REMARK   21  A    between atoms: _51  and  _53
REMARK   22  A    between atoms: _53  and  _54
REMARK   23  A    between atoms: _53  and  _56
REMARK   24  A    between atoms: _59  and  _61
REMARK   25  A    between atoms: _61  and  _62
REMARK   26  A    between atoms: _61  and  _64
REMARK   27  A    between atoms: _64  and  _65
REMARK   28  A    between atoms: _71  and  _73
REMARK   29  A    between atoms: _73  and  _74
REMARK   30  A    between atoms: _73  and  _76
REMARK   31  A    between atoms: _76  and  _77
REMARK   32  A    between atoms: _77  and  _78
REMARK   33  A    between atoms: _78  and  _79
REMARK   34  A    between atoms: _88  and  _90
REMARK   35  A    between atoms: _90  and  _91
REMARK   36  A    between atoms: _93  and  _95
REMARK   37  A    between atoms: _95  and  _96
REMARK   38  A    between atoms: _95  and  _98
REMARK   39  A    between atoms: _98  and  _99
REMARK   40  A    between atoms: _99  and  _100
REMARK   41  A    between atoms: _100  and  _101
REMARK   42  A    between atoms: _101  and  _102
REMARK   43  A    between atoms: _106  and  _108
REMARK   44  A    between atoms: _108  and  _109
REMARK   45  A    between atoms: _108  and  _111
REMARK   46  A    between atoms: _111  and  _112
REMARK   47  A    between atoms: _117  and  _118
REMARK   48  A    between atoms: _120  and  _122
REMARK   49  A    between atoms: _122  and  _123
REMARK   50  A    between atoms: _122  and  _125
REMARK   51  A    between atoms: _125  and  _126
REMARK   52  A    between atoms: _126  and  _127
REMARK   53  A    between atoms: _132  and  _134
REMARK   54  A    between atoms: _134  and  _135
REMARK   55  A    between atoms: _134  and  _137
REMARK   56  A    between atoms: _137  and  _138
REMARK   57  A    between atoms: _138  and  _139
REMARK   58  A    between atoms: _139  and  _140
REMARK   59  A    between atoms: _149  and  _151
REMARK   60  A    between atoms: _151  and  _152
REMARK   61  A    between atoms: _154  and  _156
REMARK   62  A    between atoms: _156  and  _157
REMARK   63  A    between atoms: _156  and  _159
REMARK   64  A    between atoms: _159  and  _160
REMARK   65  A    between atoms: _165  and  _167
REMARK   66  A    between atoms: _167  and  _168
REMARK   67  A    between atoms: _167  and  _170
REMARK   68  A    between atoms: _170  and  _171
REMARK   69  A    between atoms: _174  and  _176
REMARK   70  A    between atoms: _176  and  _177
REMARK   71  A    between atoms: _176  and  _179
REMARK   72  A    between atoms: _179  and  _180
REMARK   73  A    between atoms: _183  and  _185
REMARK   74  A    between atoms: _185  and  _186
REMARK   75  A    between atoms: _185  and  _188
REMARK   76  A    between atoms: _188  and  _189
REMARK   77  A    between atoms: _194  and  _196
REMARK   78  A    between atoms: _196  and  _197
REMARK   79  A    between atoms: _196  and  _199
REMARK   80  A    between atoms: _199  and  _200
REMARK   81  A    between atoms: _203  and  _205
REMARK   82  A    between atoms: _205  and  _206
REMARK   83  A    between atoms: _205  and  _208
REMARK   84  A    between atoms: _208  and  _209
REMARK   85  A    between atoms: _214  and  _216
REMARK   86  A    between atoms: _216  and  _217
REMARK   87  A    between atoms: _219  and  _221
REMARK   88  A    between atoms: _221  and  _222
REMARK   89  A    between atoms: _224  and  _226
REMARK   90  A    between atoms: _226  and  _227
REMARK   91  A    between atoms: _226  and  _229
REMARK   92  A    between atoms: _229  and  _230
REMARK   93  A    between atoms: _234  and  ZN_1038
REMARK   94  A    between atoms: _235  and  _237
REMARK   95  A    between atoms: _237  and  _238
REMARK   96  A    between atoms: _237  and  _240
REMARK   97  A    between atoms: _240  and  _241
REMARK   98  A    between atoms: _244  and  _246
REMARK   99  A    between atoms: _246  and  _247
REMARK  100  A    between atoms: _246  and  _249
REMARK  101  A    between atoms: _249  and  _250
REMARK  102  A    between atoms: _260  and  _262
REMARK  103  A    between atoms: _262  and  _263
REMARK  104  A    between atoms: _262  and  _265
REMARK  105  A    between atoms: _265  and  _266
REMARK  106  A    between atoms: _269  and  _271
REMARK  107  A    between atoms: _271  and  _272
REMARK  108  A    between atoms: _271  and  _274
REMARK  109  A    between atoms: _274  and  _275
REMARK  110  A    between atoms: _279  and  _280
REMARK  111  A    between atoms: _285  and  _287
REMARK  112  A    between atoms: _287  and  _288
REMARK  113  A    between atoms: _291  and  _293
REMARK  114  A    between atoms: _293  and  _294
REMARK  115  A    between atoms: _293  and  _296
REMARK  116  A    between atoms: _296  and  _297
REMARK  117  A    between atoms: _297  and  _298
REMARK  118  A    between atoms: _301  and  _303
REMARK  119  A    between atoms: _303  and  _304
REMARK  120  A    between atoms: _303  and  _306
REMARK  121  A    between atoms: _306  and  _307
REMARK  122  A    between atoms: _307  and  _308
REMARK  123  A    between atoms: _308  and  _310
REMARK  124  A    between atoms: _310  and  ZN_1037
REMARK  125  A    between atoms: _311  and  _313
REMARK  126  A    between atoms: _313  and  _314
REMARK  127  A    between atoms: _313  and  _316
REMARK  128  A    between atoms: _316  and  _317
REMARK  129  A    between atoms: _323  and  _325
REMARK  130  A    between atoms: _325  and  _326
REMARK  131  A    between atoms: _328  and  _330
REMARK  132  A    between atoms: _330  and  _331
REMARK  133  A    between atoms: _330  and  _333
REMARK  134  A    between atoms: _333  and  _334
REMARK  135  A    between atoms: _337  and  _339
REMARK  136  A    between atoms: _339  and  _340
REMARK  137  A    between atoms: _339  and  _342
REMARK  138  A    between atoms: _342  and  _343
REMARK  139  A    between atoms: _346  and  _348
REMARK  140  A    between atoms: _348  and  _349
REMARK  141  A    between atoms: _348  and  _351
REMARK  142  A    between atoms: _351  and  _352
REMARK  143  A    between atoms: _357  and  _359
REMARK  144  A    between atoms: _359  and  _360
REMARK  145  A    between atoms: _359  and  _362
REMARK  146  A    between atoms: _362  and  _363
REMARK  147  A    between atoms: _363  and  _365
REMARK  148  A    between atoms: _365  and  ZN_1038
REMARK  149  A    between atoms: _366  and  _368
REMARK  150  A    between atoms: _368  and  _369
REMARK  151  A    between atoms: _368  and  _371
REMARK  152  A    between atoms: _371  and  _372
REMARK  153  A    between atoms: _374  and  _376
REMARK  154  A    between atoms: _376  and  _377
REMARK  155  A    between atoms: _376  and  _379
REMARK  156  A    between atoms: _379  and  _380
REMARK  157  A    between atoms: _382  and  _384
REMARK  158  A    between atoms: _384  and  _385
REMARK  159  A    between atoms: _384  and  _387
REMARK  160  A    between atoms: _387  and  _388
REMARK  161  A    between atoms: _391  and  _393
REMARK  162  A    between atoms: _393  and  _394
REMARK  163  A    between atoms: _393  and  _396
REMARK  164  A    between atoms: _396  and  _397
REMARK  165  A    between atoms: _397  and  _398
REMARK  166  A    between atoms: _401  and  _403
REMARK  167  A    between atoms: _403  and  _404
REMARK  168  A    between atoms: _403  and  _406
REMARK  169  A    between atoms: _406  and  _407
REMARK  170  A    between atoms: _412  and  _413
REMARK  171  A    between atoms: _415  and  _417
REMARK  172  A    between atoms: _417  and  _418
REMARK  173  A    between atoms: _417  and  _420
REMARK  174  A    between atoms: _420  and  _421
REMARK  175  A    between atoms: _424  and  _426
REMARK  176  A    between atoms: _426  and  _427
REMARK  177  A    between atoms: _426  and  _429
REMARK  178  A    between atoms: _429  and  _430
REMARK  179  A    between atoms: _433  and  _435
REMARK  180  A    between atoms: _435  and  _436
REMARK  181  A    between atoms: _435  and  _438
REMARK  182  A    between atoms: _438  and  _439
REMARK  183  A    between atoms: _439  and  _440
REMARK  184  A    between atoms: _440  and  _441
REMARK  185  A    between atoms: _450  and  _452
REMARK  186  A    between atoms: _452  and  _453
REMARK  187  A    between atoms: _452  and  _455
REMARK  188  A    between atoms: _458  and  _460
REMARK  189  A    between atoms: _460  and  _461
REMARK  190  A    between atoms: _460  and  _463
REMARK  191  A    between atoms: _463  and  _464
REMARK  192  A    between atoms: _467  and  _469
REMARK  193  A    between atoms: _469  and  _470
REMARK  194  A    between atoms: _469  and  _472
REMARK  195  A    between atoms: _474  and  _476
REMARK  196  A    between atoms: _476  and  _477
REMARK  197  A    between atoms: _476  and  _479
REMARK  198  A    between atoms: _479  and  _480
REMARK  199  A    between atoms: _490  and  _492
REMARK  200  A    between atoms: _492  and  _493
REMARK  201  A    between atoms: _492  and  _495
REMARK  202  A    between atoms: _495  and  _496
REMARK  203  A    between atoms: _496  and  _497
REMARK  204  A    between atoms: _497  and  _498
REMARK  205  A    between atoms: _498  and  _499
REMARK  206  A    between atoms: _503  and  _505
REMARK  207  A    between atoms: _505  and  _506
REMARK  208  A    between atoms: _505  and  _508
REMARK  209  A    between atoms: _508  and  _509
REMARK  210  A    between atoms: _512  and  _513
REMARK  211  A    between atoms: _519  and  _520
REMARK  212  A    between atoms: _525  and  _527
REMARK  213  A    between atoms: _527  and  _528
REMARK  214  A    between atoms: _527  and  _530
REMARK  215  A    between atoms: _530  and  _531
REMARK  216  A    between atoms: _531  and  _532
REMARK  217  A    between atoms: _535  and  _537
REMARK  218  A    between atoms: _537  and  _538
REMARK  219  A    between atoms: _537  and  _540
REMARK  220  A    between atoms: _540  and  _541
REMARK  221  A    between atoms: _541  and  _542
REMARK  222  A    between atoms: _542  and  _543
REMARK  223  A    between atoms: _552  and  _554
REMARK  224  A    between atoms: _554  and  _555
REMARK  225  A    between atoms: _554  and  _557
REMARK  226  A    between atoms: _557  and  _558
REMARK  227  A    between atoms: _561  and  _563
REMARK  228  A    between atoms: _563  and  _564
REMARK  229  A    between atoms: _563  and  _566
REMARK  230  A    between atoms: _566  and  _567
REMARK  231  A    between atoms: _569  and  _571
REMARK  232  A    between atoms: _571  and  _572
REMARK  233  A    between atoms: _571  and  _574
REMARK  234  A    between atoms: _574  and  _575
REMARK  235  A    between atoms: _575  and  _576
REMARK  236  A    between atoms: _576  and  _577
REMARK  237  A    between atoms: _577  and  _578
REMARK  238  A    between atoms: _582  and  _584
REMARK  239  A    between atoms: _584  and  _585
REMARK  240  A    between atoms: _584  and  _587
REMARK  241  A    between atoms: _587  and  _588
REMARK  242  A    between atoms: _591  and  _593
REMARK  243  A    between atoms: _593  and  _594
REMARK  244  A    between atoms: _596  and  _598
REMARK  245  A    between atoms: _598  and  _599
REMARK  246  A    between atoms: _598  and  _601
REMARK  247  A    between atoms: _601  and  _602
REMARK  248  A    between atoms: _604  and  _606
REMARK  249  A    between atoms: _606  and  _607
REMARK  250  A    between atoms: _609  and  _611
REMARK  251  A    between atoms: _611  and  _612
REMARK  252  A    between atoms: _611  and  _614
REMARK  253  A    between atoms: _614  and  _615
REMARK  254  A    between atoms: _620  and  _622
REMARK  255  A    between atoms: _622  and  _623
REMARK  256  A    between atoms: _622  and  _625
REMARK  257  A    between atoms: _625  and  _626
REMARK  258  A    between atoms: _629  and  _631
REMARK  259  A    between atoms: _631  and  _632
REMARK  260  A    between atoms: _631  and  _634
REMARK  261  A    between atoms: _634  and  _635
REMARK  262  A    between atoms: _641  and  _643
REMARK  263  A    between atoms: _643  and  _644
REMARK  264  A    between atoms: _643  and  _646
REMARK  265  A    between atoms: _646  and  _647
REMARK  266  A    between atoms: _647  and  _648
REMARK  267  A    between atoms: _651  and  _653
REMARK  268  A    between atoms: _653  and  _654
REMARK  269  A    between atoms: _653  and  _656
REMARK  270  A    between atoms: _656  and  _657
REMARK  271  A    between atoms: _657  and  _658
REMARK  272  A    between atoms: _663  and  _665
REMARK  273  A    between atoms: _665  and  _666
REMARK  274  A    between atoms: _665  and  _668
REMARK  275  A    between atoms: _668  and  _669
REMARK  276  A    between atoms: _669  and  _670
REMARK  277  A    between atoms: _670  and  _671
REMARK  278  A    between atoms: _680  and  _682
REMARK  279  A    between atoms: _682  and  _683
REMARK  280  A    between atoms: _682  and  _685
REMARK  281  A    between atoms: _685  and  _686
REMARK  282  A    between atoms: _686  and  _687
REMARK  283  A    between atoms: _687  and  _688
REMARK  284  A    between atoms: _697  and  _699
REMARK  285  A    between atoms: _699  and  _700
REMARK  286  A    between atoms: _699  and  _702
REMARK  287  A    between atoms: _702  and  _703
REMARK  288  A    between atoms: _708  and  _709
REMARK  289  A    between atoms: _711  and  _713
REMARK  290  A    between atoms: _713  and  _714
REMARK  291  A    between atoms: _713  and  _716
REMARK  292  A    between atoms: _716  and  _717
REMARK  293  A    between atoms: _720  and  _722
REMARK  294  A    between atoms: _722  and  _723
REMARK  295  A    between atoms: _722  and  _725
REMARK  296  A    between atoms: _725  and  _726
REMARK  297  A    between atoms: _726  and  _727
REMARK  298  A    between atoms: _727  and  _728
REMARK  299  A    between atoms: _728  and  _729
REMARK  300  A    between atoms: _733  and  _735
REMARK  301  A    between atoms: _735  and  _736
REMARK  302  A    between atoms: _735  and  _738
REMARK  303  A    between atoms: _738  and  _739
REMARK  304  A    between atoms: _744  and  _746
REMARK  305  A    between atoms: _746  and  _747
REMARK  306  A    between atoms: _746  and  _749
REMARK  307  A    between atoms: _749  and  _750
REMARK  308  A    between atoms: _760  and  _762
REMARK  309  A    between atoms: _762  and  _763
REMARK  310  A    between atoms: _762  and  _765
REMARK  311  A    between atoms: _765  and  _766
REMARK  312  A    between atoms: _766  and  _767
REMARK  313  A    between atoms: _770  and  _772
REMARK  314  A    between atoms: _772  and  _773
REMARK  315  A    between atoms: _772  and  _775
REMARK  316  A    between atoms: _775  and  _776
REMARK  317  A    between atoms: _779  and  _781
REMARK  318  A    between atoms: _781  and  _782
REMARK  319  A    between atoms: _781  and  _784
REMARK  320  A    between atoms: _784  and  _785
REMARK  321  A    between atoms: _790  and  _792
REMARK  322  A    between atoms: _792  and  _793
REMARK  323  A    between atoms: _792  and  _795
REMARK  324  A    between atoms: _795  and  _796
REMARK  325  A    between atoms: _802  and  _804
REMARK  326  A    between atoms: _804  and  _805
REMARK  327  A    between atoms: _804  and  _807
REMARK  328  A    between atoms: _807  and  _808
REMARK  329  A    between atoms: _810  and  _812
REMARK  330  A    between atoms: _812  and  _813
REMARK  331  A    between atoms: _815  and  _817
REMARK  332  A    between atoms: _817  and  _818
REMARK  333  A    between atoms: _817  and  _820
REMARK  334  A    between atoms: _820  and  _821
REMARK  335  A    between atoms: _826  and  _827
REMARK  336  A    between atoms: _829  and  _831
REMARK  337  A    between atoms: _831  and  _832
REMARK  338  A    between atoms: _831  and  _834
REMARK  339  A    between atoms: _834  and  _835
REMARK  340  A    between atoms: _840  and  _841
REMARK  341  A    between atoms: _843  and  _845
REMARK  342  A    between atoms: _845  and  _846
REMARK  343  A    between atoms: _845  and  _848
REMARK  344  A    between atoms: _848  and  _849
REMARK  345  A    between atoms: _853  and  ZN_1037
REMARK  346  A    between atoms: _854  and  _856
REMARK  347  A    between atoms: _856  and  _857
REMARK  348  A    between atoms: _856  and  _859
REMARK  349  A    between atoms: _859  and  _860
REMARK  350  A    between atoms: _860  and  _861
REMARK  351  A    between atoms: _864  and  _866
REMARK  352  A    between atoms: _866  and  _867
REMARK  353  A    between atoms: _866  and  _869
REMARK  354  A    between atoms: _869  and  _870
REMARK  355  A    between atoms: _870  and  _871
REMARK  356  A    between atoms: _871  and  _872
REMARK  357  A    between atoms: _881  and  _883
REMARK  358  A    between atoms: _883  and  _884
REMARK  359  A    between atoms: _883  and  _886
REMARK  360  A    between atoms: _886  and  _887
REMARK  361  A    between atoms: _887  and  _888
REMARK  362  A    between atoms: _888  and  _889
REMARK  363  A    between atoms: _889  and  _890
REMARK  364  A    between atoms: _894  and  _896
REMARK  365  A    between atoms: _896  and  _897
REMARK  366  A    between atoms: _896  and  _899
REMARK  367  A    between atoms: _899  and  _900
REMARK  368  A    between atoms: _905  and  _906
REMARK  369  A    between atoms: _908  and  _910
REMARK  370  A    between atoms: _910  and  _911
REMARK  371  A    between atoms: _910  and  _913
REMARK  372  A    between atoms: _913  and  _914
REMARK  373  A    between atoms: _914  and  _915
REMARK  374  A    between atoms: _915  and  _916
REMARK  375  A    between atoms: _916  and  _917
REMARK  376  A    between atoms: _921  and  _923
REMARK  377  A    between atoms: _923  and  _924
REMARK  378  A    between atoms: _923  and  _926
REMARK  379  A    between atoms: _926  and  _927
REMARK  380  A    between atoms: _932  and  _933
REMARK  381  A    between atoms: _935  and  _937
REMARK  382  A    between atoms: _937  and  _938
REMARK  383  A    between atoms: _937  and  _940
REMARK  384  A    between atoms: _940  and  _941
REMARK  385  A    between atoms: _946  and  _947
REMARK  386  A    between atoms: _949  and  _951
REMARK  387  A    between atoms: _951  and  _952
REMARK  388  A    between atoms: _956  and  _957
REMARK  389  A    between atoms: _962  and  _964
REMARK  390  A    between atoms: _964  and  _965
REMARK  391  A    between atoms: _964  and  _967
REMARK  392  A    between atoms: _967  and  _968
REMARK  393  A    between atoms: _970  and  _972
REMARK  394  A    between atoms: _972  and  _973
REMARK  395  A    between atoms: _972  and  _975
REMARK  396  A    between atoms: _975  and  _976
REMARK  397  A    between atoms: _981  and  _983
REMARK  398  A    between atoms: _983  and  _984
REMARK  399  A    between atoms: _983  and  _986
REMARK  400  A    between atoms: _986  and  _987
REMARK  401  A    between atoms: _987  and  _988
REMARK  402  A    between atoms: _988  and  _989
REMARK  403  A    between atoms: _989  and  _990
REMARK  404  A    between atoms: _994  and  _996
REMARK  405  A    between atoms: _996  and  _997
REMARK  406  A    between atoms: _996  and  _999
REMARK  407  A    between atoms: _999  and  _1000
REMARK  408  A    between atoms: _1005  and  _1006
REMARK  409  A    between atoms: _1008  and  _1010
REMARK  410  A    between atoms: _1010  and  _1011
REMARK  411  A    between atoms: _1014  and  _1016
REMARK  412  A    between atoms: _1016  and  _1017
REMARK  413  A    between atoms: _1019  and  _1021
REMARK  414  A    between atoms: _1021  and  _1022
REMARK  415  A    between atoms: _1021  and  _1024
REMARK  416  A    between atoms: _1024  and  _1025
REMARK  417  A    between atoms: _1025  and  _1026
REMARK  418  A    between atoms: _1029  and  _1031
REMARK  419  A    between atoms: _1031  and  _1032
REMARK  420  A    between atoms: _1031  and  _1034
REMARK  421  A    between atoms: _1034  and  _1035
REMARK                            x       y       z     vdW  Elec       q    Type
REMARK                         _______ _______ _______ _____ _____    ______ ____
ROOT
ATOM      1  O   HOH     1      14.927  52.592  34.671  0.00  0.00    +0.000 OA
ENDROOT
TORSDOF 0
REMARK  Name = ../refined-set-2016/2xef/2xef_pocket.pdb
REMARK  421 active torsions:
REMARK  status: ('A' for Active; 'I' for Inactive)
REMARK    1  A    between atoms: _1  and  _3
REMARK    2  A    between atoms: _3  and  _4
REMARK    3  A    between atoms: _7  and  _9
REMARK    4  A    between atoms: _9  and  _10
REMARK    5  A    between atoms: _9  and  _12
REMARK    6  A    between atoms: _12  and  _13
REMARK    7  A    between atoms: _19  and  _21
REMARK    8  A    between atoms: _21  and  _22
REMARK    9  A    between atoms: _21  and  _24
REMARK   10  A    between atoms: _24  and  _25
REMARK   11  A    between atoms: _30  and  _31
REMARK   12  A    between atoms: _33  and  _35
REMARK   13  A    between atoms: _35  and  _36
REMARK   14  A    between atoms: _38  and  _40
REMARK   15  A    between atoms: _40  and  _41
REMARK   16  A    between atoms: _40  and  _43
REMARK   17  A    between atoms: _43  and  _44
REMARK   18  A    between atoms: _44  and  _45
REMARK   19  A    between atoms: _45  and  _46
REMARK   20  A    between atoms: _46  and  _47
REMARK   21  A    between atoms: _51  and  _53
REMARK   22  A    between atoms: _53  and  _54
REMARK   23  A    between atoms: _53  and  _56
REMARK   24  A    between atoms: _59  and  _61
REMARK   25  A    between atoms: _61  and  _62
REMARK   26  A    between atoms: _61  and  _64
REMARK   27  A    between atoms: _64  and  _65
REMARK   28  A    between atoms: _71  and  _73
REMARK   29  A    between atoms: _73  and  _74
REMARK   30  A    between atoms: _73  and  _76
REMARK   31  A    between atoms: _76  and  _77
REMARK   32  A    between atoms: _77  and  _78
REMARK   33  A    between atoms: _78  and  _79
REMARK   34  A    between atoms: _88  and  _90
REMARK   35  A    between atoms: _90  and  _91
REMARK   36  A    between atoms: _93  and  _95
REMARK   37  A    between atoms: _95  and  _96
REMARK   38  A    between atoms: _95  and  _98
REMARK   39  A    between atoms: _98  and  _99
REMARK   40  A    between atoms: _99  and  _100
REMARK   41  A    between atoms: _100  and  _101
REMARK   42  A    between atoms: _101  and  _102
REMARK   43  A    between atoms: _106  and  _108
REMARK   44  A    between atoms: _108  and  _109
REMARK   45  A    between atoms: _108  and  _111
REMARK   46  A    between atoms: _111  and  _112
REMARK   47  A    between atoms: _117  and  _118
REMARK   48  A    between atoms: _120  and  _122
REMARK   49  A    between atoms: _122  and  _123
REMARK   50  A    between atoms: _122  and  _125
REMARK   51  A    between atoms: _125  and  _126
REMARK   52  A    between atoms: _126  and  _127
REMARK   53  A    between atoms: _132  and  _134
REMARK   54  A    between atoms: _134  and  _135
REMARK   55  A    between atoms: _134  and  _137
REMARK   56  A    between atoms: _137  and  _138
REMARK   57  A    between atoms: _138  and  _139
REMARK   58  A    between atoms: _139  and  _140
REMARK   59  A    between atoms: _149  and  _151
REMARK   60  A    between atoms: _151  and  _152
REMARK   61  A    between atoms: _154  and  _156
REMARK   62  A    between atoms: _156  and  _157
REMARK   63  A    between atoms: _156  and  _159
REMARK   64  A    between atoms: _159  and  _160
REMARK   65  A    between atoms: _165  and  _167
REMARK   66  A    between atoms: _167  and  _168
REMARK   67  A    between atoms: _167  and  _170
REMARK   68  A    between atoms: _170  and  _171
REMARK   69  A    between atoms: _174  and  _176
REMARK   70  A    between atoms: _176  and  _177
REMARK   71  A    between atoms: _176  and  _179
REMARK   72  A    between atoms: _179  and  _180
REMARK   73  A    between atoms: _183  and  _185
REMARK   74  A    between atoms: _185  and  _186
REMARK   75  A    between atoms: _185  and  _188
REMARK   76  A    between atoms: _188  and  _189
REMARK   77  A    between atoms: _194  and  _196
REMARK   78  A    between atoms: _196  and  _197
REMARK   79  A    between atoms: _196  and  _199
REMARK   80  A    between atoms: _199  and  _200
REMARK   81  A    between atoms: _203  and  _205
REMARK   82  A    between atoms: _205  and  _206
REMARK   83  A    between atoms: _205  and  _208
REMARK   84  A    between atoms: _208  and  _209
REMARK   85  A    between atoms: _214  and  _216
REMARK   86  A    between atoms: _216  and  _217
REMARK   87  A    between atoms: _219  and  _221
REMARK   88  A    between atoms: _221  and  _222
REMARK   89  A    between atoms: _224  and  _226
REMARK   90  A    between atoms: _226  and  _227
REMARK   91  A    between atoms: _226  and  _229
REMARK   92  A    between atoms: _229  and  _230
REMARK   93  A    between atoms: _234  and  ZN_1038
REMARK   94  A    between atoms: _235  and  _237
REMARK   95  A    between atoms: _237  and  _238
REMARK   96  A    between atoms: _237  and  _240
REMARK   97  A    between atoms: _240  and  _241
REMARK   98  A    between atoms: _244  and  _246
REMARK   99  A    between atoms: _246  and  _247
REMARK  100  A    between atoms: _246  and  _249
REMARK  101  A    between atoms: _249  and  _250
REMARK  102  A    between atoms: _260  and  _262
REMARK  103  A    between atoms: _262  and  _263
REMARK  104  A    between atoms: _262  and  _265
REMARK  105  A    between atoms: _265  and  _266
REMARK  106  A    between atoms: _269  and  _271
REMARK  107  A    between atoms: _271  and  _272
REMARK  108  A    between atoms: _271  and  _274
REMARK  109  A    between atoms: _274  and  _275
REMARK  110  A    between atoms: _279  and  _280
REMARK  111  A    between atoms: _285  and  _287
REMARK  112  A    between atoms: _287  and  _288
REMARK  113  A    between atoms: _291  and  _293
REMARK  114  A    between atoms: _293  and  _294
REMARK  115  A    between atoms: _293  and  _296
REMARK  116  A    between atoms: _296  and  _297
REMARK  117  A    between atoms: _297  and  _298
REMARK  118  A    between atoms: _301  and  _303
REMARK  119  A    between atoms: _303  and  _304
REMARK  120  A    between atoms: _303  and  _306
REMARK  121  A    between atoms: _306  and  _307
REMARK  122  A    between atoms: _307  and  _308
REMARK  123  A    between atoms: _308  and  _310
REMARK  124  A    between atoms: _310  and  ZN_1037
REMARK  125  A    between atoms: _311  and  _313
REMARK  126  A    between atoms: _313  and  _314
REMARK  127  A    between atoms: _313  and  _316
REMARK  128  A    between atoms: _316  and  _317
REMARK  129  A    between atoms: _323  and  _325
REMARK  130  A    between atoms: _325  and  _326
REMARK  131  A    between atoms: _328  and  _330
REMARK  132  A    between atoms: _330  and  _331
REMARK  133  A    between atoms: _330  and  _333
REMARK  134  A    between atoms: _333  and  _334
REMARK  135  A    between atoms: _337  and  _339
REMARK  136  A    between atoms: _339  and  _340
REMARK  137  A    between atoms: _339  and  _342
REMARK  138  A    between atoms: _342  and  _343
REMARK  139  A    between atoms: _346  and  _348
REMARK  140  A    between atoms: _348  and  _349
REMARK  141  A    between atoms: _348  and  _351
REMARK  142  A    between atoms: _351  and  _352
REMARK  143  A    between atoms: _357  and  _359
REMARK  144  A    between atoms: _359  and  _360
REMARK  145  A    between atoms: _359  and  _362
REMARK  146  A    between atoms: _362  and  _363
REMARK  147  A    between atoms: _363  and  _365
REMARK  148  A    between atoms: _365  and  ZN_1038
REMARK  149  A    between atoms: _366  and  _368
REMARK  150  A    between atoms: _368  and  _369
REMARK  151  A    between atoms: _368  and  _371
REMARK  152  A    between atoms: _371  and  _372
REMARK  153  A    between atoms: _374  and  _376
REMARK  154  A    between atoms: _376  and  _377
REMARK  155  A    between atoms: _376  and  _379
REMARK  156  A    between atoms: _379  and  _380
REMARK  157  A    between atoms: _382  and  _384
REMARK  158  A    between atoms: _384  and  _385
REMARK  159  A    between atoms: _384  and  _387
REMARK  160  A    between atoms: _387  and  _388
REMARK  161  A    between atoms: _391  and  _393
REMARK  162  A    between atoms: _393  and  _394
REMARK  163  A    between atoms: _393  and  _396
REMARK  164  A    between atoms: _396  and  _397
REMARK  165  A    between atoms: _397  and  _398
REMARK  166  A    between atoms: _401  and  _403
REMARK  167  A    between atoms: _403  and  _404
REMARK  168  A    between atoms: _403  and  _406
REMARK  169  A    between atoms: _406  and  _407
REMARK  170  A    between atoms: _412  and  _413
REMARK  171  A    between atoms: _415  and  _417
REMARK  172  A    between atoms: _417  and  _418
REMARK  173  A    between atoms: _417  and  _420
REMARK  174  A    between atoms: _420  and  _421
REMARK  175  A    between atoms: _424  and  _426
REMARK  176  A    between atoms: _426  and  _427
REMARK  177  A    between atoms: _426  and  _429
REMARK  178  A    between atoms: _429  and  _430
REMARK  179  A    between atoms: _433  and  _435
REMARK  180  A    between atoms: _435  and  _436
REMARK  181  A    between atoms: _435  and  _438
REMARK  182  A    between atoms: _438  and  _439
REMARK  183  A    between atoms: _439  and  _440
REMARK  184  A    between atoms: _440  and  _441
REMARK  185  A    between atoms: _450  and  _452
REMARK  186  A    between atoms: _452  and  _453
REMARK  187  A    between atoms: _452  and  _455
REMARK  188  A    between atoms: _458  and  _460
REMARK  189  A    between atoms: _460  and  _461
REMARK  190  A    between atoms: _460  and  _463
REMARK  191  A    between atoms: _463  and  _464
REMARK  192  A    between atoms: _467  and  _469
REMARK  193  A    between atoms: _469  and  _470
REMARK  194  A    between atoms: _469  and  _472
REMARK  195  A    between atoms: _474  and  _476
REMARK  196  A    between atoms: _476  and  _477
REMARK  197  A    between atoms: _476  and  _479
REMARK  198  A    between atoms: _479  and  _480
REMARK  199  A    between atoms: _490  and  _492
REMARK  200  A    between atoms: _492  and  _493
REMARK  201  A    between atoms: _492  and  _495
REMARK  202  A    between atoms: _495  and  _496
REMARK  203  A    between atoms: _496  and  _497
REMARK  204  A    between atoms: _497  and  _498
REMARK  205  A    between atoms: _498  and  _499
REMARK  206  A    between atoms: _503  and  _505
REMARK  207  A    between atoms: _505  and  _506
REMARK  208  A    between atoms: _505  and  _508
REMARK  209  A    between atoms: _508  and  _509
REMARK  210  A    between atoms: _512  and  _513
REMARK  211  A    between atoms: _519  and  _520
REMARK  212  A    between atoms: _525  and  _527
REMARK  213  A    between atoms: _527  and  _528
REMARK  214  A    between atoms: _527  and  _530
REMARK  215  A    between atoms: _530  and  _531
REMARK  216  A    between atoms: _531  and  _532
REMARK  217  A    between atoms: _535  and  _537
REMARK  218  A    between atoms: _537  and  _538
REMARK  219  A    between atoms: _537  and  _540
REMARK  220  A    between atoms: _540  and  _541
REMARK  221  A    between atoms: _541  and  _542
REMARK  222  A    between atoms: _542  and  _543
REMARK  223  A    between atoms: _552  and  _554
REMARK  224  A    between atoms: _554  and  _555
REMARK  225  A    between atoms: _554  and  _557
REMARK  226  A    between atoms: _557  and  _558
REMARK  227  A    between atoms: _561  and  _563
REMARK  228  A    between atoms: _563  and  _564
REMARK  229  A    between atoms: _563  and  _566
REMARK  230  A    between atoms: _566  and  _567
REMARK  231  A    between atoms: _569  and  _571
REMARK  232  A    between atoms: _571  and  _572
REMARK  233  A    between atoms: _571  and  _574
REMARK  234  A    between atoms: _574  and  _575
REMARK  235  A    between atoms: _575  and  _576
REMARK  236  A    between atoms: _576  and  _577
REMARK  237  A    between atoms: _577  and  _578
REMARK  238  A    between atoms: _582  and  _584
REMARK  239  A    between atoms: _584  and  _585
REMARK  240  A    between atoms: _584  and  _587
REMARK  241  A    between atoms: _587  and  _588
REMARK  242  A    between atoms: _591  and  _593
REMARK  243  A    between atoms: _593  and  _594
REMARK  244  A    between atoms: _596  and  _598
REMARK  245  A    between atoms: _598  and  _599
REMARK  246  A    between atoms: _598  and  _601
REMARK  247  A    between atoms: _601  and  _602
REMARK  248  A    between atoms: _604  and  _606
REMARK  249  A    between atoms: _606  and  _607
REMARK  250  A    between atoms: _609  and  _611
REMARK  251  A    between atoms: _611  and  _612
REMARK  252  A    between atoms: _611  and  _614
REMARK  253  A    between atoms: _614  and  _615
REMARK  254  A    between atoms: _620  and  _622
REMARK  255  A    between atoms: _622  and  _623
REMARK  256  A    between atoms: _622  and  _625
REMARK  257  A    between atoms: _625  and  _626
REMARK  258  A    between atoms: _629  and  _631
REMARK  259  A    between atoms: _631  and  _632
REMARK  260  A    between atoms: _631  and  _634
REMARK  261  A    between atoms: _634  and  _635
REMARK  262  A    between atoms: _641  and  _643
REMARK  263  A    between atoms: _643  and  _644
REMARK  264  A    between atoms: _643  and  _646
REMARK  265  A    between atoms: _646  and  _647
REMARK  266  A    between atoms: _647  and  _648
REMARK  267  A    between atoms: _651  and  _653
REMARK  268  A    between atoms: _653  and  _654
REMARK  269  A    between atoms: _653  and  _656
REMARK  270  A    between atoms: _656  and  _657
REMARK  271  A    between atoms: _657  and  _658
REMARK  272  A    between atoms: _663  and  _665
REMARK  273  A    between atoms: _665  and  _666
REMARK  274  A    between atoms: _665  and  _668
REMARK  275  A    between atoms: _668  and  _669
REMARK  276  A    between atoms: _669  and  _670
REMARK  277  A    between atoms: _670  and  _671
REMARK  278  A    between atoms: _680  and  _682
REMARK  279  A    between atoms: _682  and  _683
REMARK  280  A    between atoms: _682  and  _685
REMARK  281  A    between atoms: _685  and  _686
REMARK  282  A    between atoms: _686  and  _687
REMARK  283  A    between atoms: _687  and  _688
REMARK  284  A    between atoms: _697  and  _699
REMARK  285  A    between atoms: _699  and  _700
REMARK  286  A    between atoms: _699  and  _702
REMARK  287  A    between atoms: _702  and  _703
REMARK  288  A    between atoms: _708  and  _709
REMARK  289  A    between atoms: _711  and  _713
REMARK  290  A    between atoms: _713  and  _714
REMARK  291  A    between atoms: _713  and  _716
REMARK  292  A    between atoms: _716  and  _717
REMARK  293  A    between atoms: _720  and  _722
REMARK  294  A    between atoms: _722  and  _723
REMARK  295  A    between atoms: _722  and  _725
REMARK  296  A    between atoms: _725  and  _726
REMARK  297  A    between atoms: _726  and  _727
REMARK  298  A    between atoms: _727  and  _728
REMARK  299  A    between atoms: _728  and  _729
REMARK  300  A    between atoms: _733  and  _735
REMARK  301  A    between atoms: _735  and  _736
REMARK  302  A    between atoms: _735  and  _738
REMARK  303  A    between atoms: _738  and  _739
REMARK  304  A    between atoms: _744  and  _746
REMARK  305  A    between atoms: _746  and  _747
REMARK  306  A    between atoms: _746  and  _749
REMARK  307  A    between atoms: _749  and  _750
REMARK  308  A    between atoms: _760  and  _762
REMARK  309  A    between atoms: _762  and  _763
REMARK  310  A    between atoms: _762  and  _765
REMARK  311  A    between atoms: _765  and  _766
REMARK  312  A    between atoms: _766  and  _767
REMARK  313  A    between atoms: _770  and  _772
REMARK  314  A    between atoms: _772  and  _773
REMARK  315  A    between atoms: _772  and  _775
REMARK  316  A    between atoms: _775  and  _776
REMARK  317  A    between atoms: _779  and  _781
REMARK  318  A    between atoms: _781  and  _782
REMARK  319  A    between atoms: _781  and  _784
REMARK  320  A    between atoms: _784  and  _785
REMARK  321  A    between atoms: _790  and  _792
REMARK  322  A    between atoms: _792  and  _793
REMARK  323  A    between atoms: _792  and  _795
REMARK  324  A    between atoms: _795  and  _796
REMARK  325  A    between atoms: _802  and  _804
REMARK  326  A    between atoms: _804  and  _805
REMARK  327  A    between atoms: _804  and  _807
REMARK  328  A    between atoms: _807  and  _808
REMARK  329  A    between atoms: _810  and  _812
REMARK  330  A    between atoms: _812  and  _813
REMARK  331  A    between atoms: _815  and  _817
REMARK  332  A    between atoms: _817  and  _818
REMARK  333  A    between atoms: _817  and  _820
REMARK  334  A    between atoms: _820  and  _821
REMARK  335  A    between atoms: _826  and  _827
REMARK  336  A    between atoms: _829  and  _831
REMARK  337  A    between atoms: _831  and  _832
REMARK  338  A    between atoms: _831  and  _834
REMARK  339  A    between atoms: _834  and  _835
REMARK  340  A    between atoms: _840  and  _841
REMARK  341  A    between atoms: _843  and  _845
REMARK  342  A    between atoms: _845  and  _846
REMARK  343  A    between atoms: _845  and  _848
REMARK  344  A    between atoms: _848  and  _849
REMARK  345  A    between atoms: _853  and  ZN_1037
REMARK  346  A    between atoms: _854  and  _856
REMARK  347  A    between atoms: _856  and  _857
REMARK  348  A    between atoms: _856  and  _859
REMARK  349  A    between atoms: _859  and  _860
REMARK  350  A    between atoms: _860  and  _861
REMARK  351  A    between atoms: _864  and  _866
REMARK  352  A    between atoms: _866  and  _867
REMARK  353  A    between atoms: _866  and  _869
REMARK  354  A    between atoms: _869  and  _870
REMARK  355  A    between atoms: _870  and  _871
REMARK  356  A    between atoms: _871  and  _872
REMARK  357  A    between atoms: _881  and  _883
REMARK  358  A    between atoms: _883  and  _884
REMARK  359  A    between atoms: _883  and  _886
REMARK  360  A    between atoms: _886  and  _887
REMARK  361  A    between atoms: _887  and  _888
REMARK  362  A    between atoms: _888  and  _889
REMARK  363  A    between atoms: _889  and  _890
REMARK  364  A    between atoms: _894  and  _896
REMARK  365  A    between atoms: _896  and  _897
REMARK  366  A    between atoms: _896  and  _899
REMARK  367  A    between atoms: _899  and  _900
REMARK  368  A    between atoms: _905  and  _906
REMARK  369  A    between atoms: _908  and  _910
REMARK  370  A    between atoms: _910  and  _911
REMARK  371  A    between atoms: _910  and  _913
REMARK  372  A    between atoms: _913  and  _914
REMARK  373  A    between atoms: _914  and  _915
REMARK  374  A    between atoms: _915  and  _916
REMARK  375  A    between atoms: _916  and  _917
REMARK  376  A    between atoms: _921  and  _923
REMARK  377  A    between atoms: _923  and  _924
REMARK  378  A    between atoms: _923  and  _926
REMARK  379  A    between atoms: _926  and  _927
REMARK  380  A    between atoms: _932  and  _933
REMARK  381  A    between atoms: _935  and  _937
REMARK  382  A    between atoms: _937  and  _938
REMARK  383  A    between atoms: _937  and  _940
REMARK  384  A    between atoms: _940  and  _941
REMARK  385  A    between atoms: _946  and  _947
REMARK  386  A    between atoms: _949  and  _951
REMARK  387  A    between atoms: _951  and  _952
REMARK  388  A    between atoms: _956  and  _957
REMARK  389  A    between atoms: _962  and  _964
REMARK  390  A    between atoms: _964  and  _965
REMARK  391  A    between atoms: _964  and  _967
REMARK  392  A    between atoms: _967  and  _968
REMARK  393  A    between atoms: _970  and  _972
REMARK  394  A    between atoms: _972  and  _973
REMARK  395  A    between atoms: _972  and  _975
REMARK  396  A    between atoms: _975  and  _976
REMARK  397  A    between atoms: _981  and  _983
REMARK  398  A    between atoms: _983  and  _984
REMARK  399  A    between atoms: _983  and  _986
REMARK  400  A    between atoms: _986  and  _987
REMARK  401  A    between atoms: _987  and  _988
REMARK  402  A    between atoms: _988  and  _989
REMARK  403  A    between atoms: _989  and  _990
REMARK  404  A    between atoms: _994  and  _996
REMARK  405  A    between atoms: _996  and  _997
REMARK  406  A    between atoms: _996  and  _999
REMARK  407  A    between atoms: _999  and  _1000
REMARK  408  A    between atoms: _1005  and  _1006
REMARK  409  A    between atoms: _1008  and  _1010
REMARK  410  A    between atoms: _1010  and  _1011
REMARK  411  A    between atoms: _1014  and  _1016
REMARK  412  A    between atoms: _1016  and  _1017
REMARK  413  A    between atoms: _1019  and  _1021
REMARK  414  A    between atoms: _1021  and  _1022
REMARK  415  A    between atoms: _1021  and  _1024
REMARK  416  A    between atoms: _1024  and  _1025
REMARK  417  A    between atoms: _1025  and  _1026
REMARK  418  A    between atoms: _1029  and  _1031
REMARK  419  A    between atoms: _1031  and  _1032
REMARK  420  A    between atoms: _1031  and  _1034
REMARK  421  A    between atoms: _1034  and  _1035
REMARK                            x       y       z     vdW  Elec       q    Type
REMARK                         _______ _______ _______ _____ _____    ______ ____
ROOT
ATOM      1  O   HOH     1      12.593  53.282  35.934  0.00  0.00    +0.000 OA
ENDROOT
TORSDOF 0
REMARK  Name = ../refined-set-2016/2xef/2xef_pocket.pdb
REMARK  421 active torsions:
REMARK  status: ('A' for Active; 'I' for Inactive)
REMARK    1  A    between atoms: _1  and  _3
REMARK    2  A    between atoms: _3  and  _4
REMARK    3  A    between atoms: _7  and  _9
REMARK    4  A    between atoms: _9  and  _10
REMARK    5  A    between atoms: _9  and  _12
REMARK    6  A    between atoms: _12  and  _13
REMARK    7  A    between atoms: _19  and  _21
REMARK    8  A    between atoms: _21  and  _22
REMARK    9  A    between atoms: _21  and  _24
REMARK   10  A    between atoms: _24  and  _25
REMARK   11  A    between atoms: _30  and  _31
REMARK   12  A    between atoms: _33  and  _35
REMARK   13  A    between atoms: _35  and  _36
REMARK   14  A    between atoms: _38  and  _40
REMARK   15  A    between atoms: _40  and  _41
REMARK   16  A    between atoms: _40  and  _43
REMARK   17  A    between atoms: _43  and  _44
REMARK   18  A    between atoms: _44  and  _45
REMARK   19  A    between atoms: _45  and  _46
REMARK   20  A    between atoms: _46  and  _47
REMARK   21  A    between atoms: _51  and  _53
REMARK   22  A    between atoms: _53  and  _54
REMARK   23  A    between atoms: _53  and  _56
REMARK   24  A    between atoms: _59  and  _61
REMARK   25  A    between atoms: _61  and  _62
REMARK   26  A    between atoms: _61  and  _64
REMARK   27  A    between atoms: _64  and  _65
REMARK   28  A    between atoms: _71  and  _73
REMARK   29  A    between atoms: _73  and  _74
REMARK   30  A    between atoms: _73  and  _76
REMARK   31  A    between atoms: _76  and  _77
REMARK   32  A    between atoms: _77  and  _78
REMARK   33  A    between atoms: _78  and  _79
REMARK   34  A    between atoms: _88  and  _90
REMARK   35  A    between atoms: _90  and  _91
REMARK   36  A    between atoms: _93  and  _95
REMARK   37  A    between atoms: _95  and  _96
REMARK   38  A    between atoms: _95  and  _98
REMARK   39  A    between atoms: _98  and  _99
REMARK   40  A    between atoms: _99  and  _100
REMARK   41  A    between atoms: _100  and  _101
REMARK   42  A    between atoms: _101  and  _102
REMARK   43  A    between atoms: _106  and  _108
REMARK   44  A    between atoms: _108  and  _109
REMARK   45  A    between atoms: _108  and  _111
REMARK   46  A    between atoms: _111  and  _112
REMARK   47  A    between atoms: _117  and  _118
REMARK   48  A    between atoms: _120  and  _122
REMARK   49  A    between atoms: _122  and  _123
REMARK   50  A    between atoms: _122  and  _125
REMARK   51  A    between atoms: _125  and  _126
REMARK   52  A    between atoms: _126  and  _127
REMARK   53  A    between atoms: _132  and  _134
REMARK   54  A    between atoms: _134  and  _135
REMARK   55  A    between atoms: _134  and  _137
REMARK   56  A    between atoms: _137  and  _138
REMARK   57  A    between atoms: _138  and  _139
REMARK   58  A    between atoms: _139  and  _140
REMARK   59  A    between atoms: _149  and  _151
REMARK   60  A    between atoms: _151  and  _152
REMARK   61  A    between atoms: _154  and  _156
REMARK   62  A    between atoms: _156  and  _157
REMARK   63  A    between atoms: _156  and  _159
REMARK   64  A    between atoms: _159  and  _160
REMARK   65  A    between atoms: _165  and  _167
REMARK   66  A    between atoms: _167  and  _168
REMARK   67  A    between atoms: _167  and  _170
REMARK   68  A    between atoms: _170  and  _171
REMARK   69  A    between atoms: _174  and  _176
REMARK   70  A    between atoms: _176  and  _177
REMARK   71  A    between atoms: _176  and  _179
REMARK   72  A    between atoms: _179  and  _180
REMARK   73  A    between atoms: _183  and  _185
REMARK   74  A    between atoms: _185  and  _186
REMARK   75  A    between atoms: _185  and  _188
REMARK   76  A    between atoms: _188  and  _189
REMARK   77  A    between atoms: _194  and  _196
REMARK   78  A    between atoms: _196  and  _197
REMARK   79  A    between atoms: _196  and  _199
REMARK   80  A    between atoms: _199  and  _200
REMARK   81  A    between atoms: _203  and  _205
REMARK   82  A    between atoms: _205  and  _206
REMARK   83  A    between atoms: _205  and  _208
REMARK   84  A    between atoms: _208  and  _209
REMARK   85  A    between atoms: _214  and  _216
REMARK   86  A    between atoms: _216  and  _217
REMARK   87  A    between atoms: _219  and  _221
REMARK   88  A    between atoms: _221  and  _222
REMARK   89  A    between atoms: _224  and  _226
REMARK   90  A    between atoms: _226  and  _227
REMARK   91  A    between atoms: _226  and  _229
REMARK   92  A    between atoms: _229  and  _230
REMARK   93  A    between atoms: _234  and  ZN_1038
REMARK   94  A    between atoms: _235  and  _237
REMARK   95  A    between atoms: _237  and  _238
REMARK   96  A    between atoms: _237  and  _240
REMARK   97  A    between atoms: _240  and  _241
REMARK   98  A    between atoms: _244  and  _246
REMARK   99  A    between atoms: _246  and  _247
REMARK  100  A    between atoms: _246  and  _249
REMARK  101  A    between atoms: _249  and  _250
REMARK  102  A    between atoms: _260  and  _262
REMARK  103  A    between atoms: _262  and  _263
REMARK  104  A    between atoms: _262  and  _265
REMARK  105  A    between atoms: _265  and  _266
REMARK  106  A    between atoms: _269  and  _271
REMARK  107  A    between atoms: _271  and  _272
REMARK  108  A    between atoms: _271  and  _274
REMARK  109  A    between atoms: _274  and  _275
REMARK  110  A    between atoms: _279  and  _280
REMARK  111  A    between atoms: _285  and  _287
REMARK  112  A    between atoms: _287  and  _288
REMARK  113  A    between atoms: _291  and  _293
REMARK  114  A    between atoms: _293  and  _294
REMARK  115  A    between atoms: _293  and  _296
REMARK  116  A    between atoms: _296  and  _297
REMARK  117  A    between atoms: _297  and  _298
REMARK  118  A    between atoms: _301  and  _303
REMARK  119  A    between atoms: _303  and  _304
REMARK  120  A    between atoms: _303  and  _306
REMARK  121  A    between atoms: _306  and  _307
REMARK  122  A    between atoms: _307  and  _308
REMARK  123  A    between atoms: _308  and  _310
REMARK  124  A    between atoms: _310  and  ZN_1037
REMARK  125  A    between atoms: _311  and  _313
REMARK  126  A    between atoms: _313  and  _314
REMARK  127  A    between atoms: _313  and  _316
REMARK  128  A    between atoms: _316  and  _317
REMARK  129  A    between atoms: _323  and  _325
REMARK  130  A    between atoms: _325  and  _326
REMARK  131  A    between atoms: _328  and  _330
REMARK  132  A    between atoms: _330  and  _331
REMARK  133  A    between atoms: _330  and  _333
REMARK  134  A    between atoms: _333  and  _334
REMARK  135  A    between atoms: _337  and  _339
REMARK  136  A    between atoms: _339  and  _340
REMARK  137  A    between atoms: _339  and  _342
REMARK  138  A    between atoms: _342  and  _343
REMARK  139  A    between atoms: _346  and  _348
REMARK  140  A    between atoms: _348  and  _349
REMARK  141  A    between atoms: _348  and  _351
REMARK  142  A    between atoms: _351  and  _352
REMARK  143  A    between atoms: _357  and  _359
REMARK  144  A    between atoms: _359  and  _360
REMARK  145  A    between atoms: _359  and  _362
REMARK  146  A    between atoms: _362  and  _363
REMARK  147  A    between atoms: _363  and  _365
REMARK  148  A    between atoms: _365  and  ZN_1038
REMARK  149  A    between atoms: _366  and  _368
REMARK  150  A    between atoms: _368  and  _369
REMARK  151  A    between atoms: _368  and  _371
REMARK  152  A    between atoms: _371  and  _372
REMARK  153  A    between atoms: _374  and  _376
REMARK  154  A    between atoms: _376  and  _377
REMARK  155  A    between atoms: _376  and  _379
REMARK  156  A    between atoms: _379  and  _380
REMARK  157  A    between atoms: _382  and  _384
REMARK  158  A    between atoms: _384  and  _385
REMARK  159  A    between atoms: _384  and  _387
REMARK  160  A    between atoms: _387  and  _388
REMARK  161  A    between atoms: _391  and  _393
REMARK  162  A    between atoms: _393  and  _394
REMARK  163  A    between atoms: _393  and  _396
REMARK  164  A    between atoms: _396  and  _397
REMARK  165  A    between atoms: _397  and  _398
REMARK  166  A    between atoms: _401  and  _403
REMARK  167  A    between atoms: _403  and  _404
REMARK  168  A    between atoms: _403  and  _406
REMARK  169  A    between atoms: _406  and  _407
REMARK  170  A    between atoms: _412  and  _413
REMARK  171  A    between atoms: _415  and  _417
REMARK  172  A    between atoms: _417  and  _418
REMARK  173  A    between atoms: _417  and  _420
REMARK  174  A    between atoms: _420  and  _421
REMARK  175  A    between atoms: _424  and  _426
REMARK  176  A    between atoms: _426  and  _427
REMARK  177  A    between atoms: _426  and  _429
REMARK  178  A    between atoms: _429  and  _430
REMARK  179  A    between atoms: _433  and  _435
REMARK  180  A    between atoms: _435  and  _436
REMARK  181  A    between atoms: _435  and  _438
REMARK  182  A    between atoms: _438  and  _439
REMARK  183  A    between atoms: _439  and  _440
REMARK  184  A    between atoms: _440  and  _441
REMARK  185  A    between atoms: _450  and  _452
REMARK  186  A    between atoms: _452  and  _453
REMARK  187  A    between atoms: _452  and  _455
REMARK  188  A    between atoms: _458  and  _460
REMARK  189  A    between atoms: _460  and  _461
REMARK  190  A    between atoms: _460  and  _463
REMARK  191  A    between atoms: _463  and  _464
REMARK  192  A    between atoms: _467  and  _469
REMARK  193  A    between atoms: _469  and  _470
REMARK  194  A    between atoms: _469  and  _472
REMARK  195  A    between atoms: _474  and  _476
REMARK  196  A    between atoms: _476  and  _477
REMARK  197  A    between atoms: _476  and  _479
REMARK  198  A    between atoms: _479  and  _480
REMARK  199  A    between atoms: _490  and  _492
REMARK  200  A    between atoms: _492  and  _493
REMARK  201  A    between atoms: _492  and  _495
REMARK  202  A    between atoms: _495  and  _496
REMARK  203  A    between atoms: _496  and  _497
REMARK  204  A    between atoms: _497  and  _498
REMARK  205  A    between atoms: _498  and  _499
REMARK  206  A    between atoms: _503  and  _505
REMARK  207  A    between atoms: _505  and  _506
REMARK  208  A    between atoms: _505  and  _508
REMARK  209  A    between atoms: _508  and  _509
REMARK  210  A    between atoms: _512  and  _513
REMARK  211  A    between atoms: _519  and  _520
REMARK  212  A    between atoms: _525  and  _527
REMARK  213  A    between atoms: _527  and  _528
REMARK  214  A    between atoms: _527  and  _530
REMARK  215  A    between atoms: _530  and  _531
REMARK  216  A    between atoms: _531  and  _532
REMARK  217  A    between atoms: _535  and  _537
REMARK  218  A    between atoms: _537  and  _538
REMARK  219  A    between atoms: _537  and  _540
REMARK  220  A    between atoms: _540  and  _541
REMARK  221  A    between atoms: _541  and  _542
REMARK  222  A    between atoms: _542  and  _543
REMARK  223  A    between atoms: _552  and  _554
REMARK  224  A    between atoms: _554  and  _555
REMARK  225  A    between atoms: _554  and  _557
REMARK  226  A    between atoms: _557  and  _558
REMARK  227  A    between atoms: _561  and  _563
REMARK  228  A    between atoms: _563  and  _564
REMARK  229  A    between atoms: _563  and  _566
REMARK  230  A    between atoms: _566  and  _567
REMARK  231  A    between atoms: _569  and  _571
REMARK  232  A    between atoms: _571  and  _572
REMARK  233  A    between atoms: _571  and  _574
REMARK  234  A    between atoms: _574  and  _575
REMARK  235  A    between atoms: _575  and  _576
REMARK  236  A    between atoms: _576  and  _577
REMARK  237  A    between atoms: _577  and  _578
REMARK  238  A    between atoms: _582  and  _584
REMARK  239  A    between atoms: _584  and  _585
REMARK  240  A    between atoms: _584  and  _587
REMARK  241  A    between atoms: _587  and  _588
REMARK  242  A    between atoms: _591  and  _593
REMARK  243  A    between atoms: _593  and  _594
REMARK  244  A    between atoms: _596  and  _598
REMARK  245  A    between atoms: _598  and  _599
REMARK  246  A    between atoms: _598  and  _601
REMARK  247  A    between atoms: _601  and  _602
REMARK  248  A    between atoms: _604  and  _606
REMARK  249  A    between atoms: _606  and  _607
REMARK  250  A    between atoms: _609  and  _611
REMARK  251  A    between atoms: _611  and  _612
REMARK  252  A    between atoms: _611  and  _614
REMARK  253  A    between atoms: _614  and  _615
REMARK  254  A    between atoms: _620  and  _622
REMARK  255  A    between atoms: _622  and  _623
REMARK  256  A    between atoms: _622  and  _625
REMARK  257  A    between atoms: _625  and  _626
REMARK  258  A    between atoms: _629  and  _631
REMARK  259  A    between atoms: _631  and  _632
REMARK  260  A    between atoms: _631  and  _634
REMARK  261  A    between atoms: _634  and  _635
REMARK  262  A    between atoms: _641  and  _643
REMARK  263  A    between atoms: _643  and  _644
REMARK  264  A    between atoms: _643  and  _646
REMARK  265  A    between atoms: _646  and  _647
REMARK  266  A    between atoms: _647  and  _648
REMARK  267  A    between atoms: _651  and  _653
REMARK  268  A    between atoms: _653  and  _654
REMARK  269  A    between atoms: _653  and  _656
REMARK  270  A    between atoms: _656  and  _657
REMARK  271  A    between atoms: _657  and  _658
REMARK  272  A    between atoms: _663  and  _665
REMARK  273  A    between atoms: _665  and  _666
REMARK  274  A    between atoms: _665  and  _668
REMARK  275  A    between atoms: _668  and  _669
REMARK  276  A    between atoms: _669  and  _670
REMARK  277  A    between atoms: _670  and  _671
REMARK  278  A    between atoms: _680  and  _682
REMARK  279  A    between atoms: _682  and  _683
REMARK  280  A    between atoms: _682  and  _685
REMARK  281  A    between atoms: _685  and  _686
REMARK  282  A    between atoms: _686  and  _687
REMARK  283  A    between atoms: _687  and  _688
REMARK  284  A    between atoms: _697  and  _699
REMARK  285  A    between atoms: _699  and  _700
REMARK  286  A    between atoms: _699  and  _702
REMARK  287  A    between atoms: _702  and  _703
REMARK  288  A    between atoms: _708  and  _709
REMARK  289  A    between atoms: _711  and  _713
REMARK  290  A    between atoms: _713  and  _714
REMARK  291  A    between atoms: _713  and  _716
REMARK  292  A    between atoms: _716  and  _717
REMARK  293  A    between atoms: _720  and  _722
REMARK  294  A    between atoms: _722  and  _723
REMARK  295  A    between atoms: _722  and  _725
REMARK  296  A    between atoms: _725  and  _726
REMARK  297  A    between atoms: _726  and  _727
REMARK  298  A    between atoms: _727  and  _728
REMARK  299  A    between atoms: _728  and  _729
REMARK  300  A    between atoms: _733  and  _735
REMARK  301  A    between atoms: _735  and  _736
REMARK  302  A    between atoms: _735  and  _738
REMARK  303  A    between atoms: _738  and  _739
REMARK  304  A    between atoms: _744  and  _746
REMARK  305  A    between atoms: _746  and  _747
REMARK  306  A    between atoms: _746  and  _749
REMARK  307  A    between atoms: _749  and  _750
REMARK  308  A    between atoms: _760  and  _762
REMARK  309  A    between atoms: _762  and  _763
REMARK  310  A    between atoms: _762  and  _765
REMARK  311  A    between atoms: _765  and  _766
REMARK  312  A    between atoms: _766  and  _767
REMARK  313  A    between atoms: _770  and  _772
REMARK  314  A    between atoms: _772  and  _773
REMARK  315  A    between atoms: _772  and  _775
REMARK  316  A    between atoms: _775  and  _776
REMARK  317  A    between atoms: _779  and  _781
REMARK  318  A    between atoms: _781  and  _782
REMARK  319  A    between atoms: _781  and  _784
REMARK  320  A    between atoms: _784  and  _785
REMARK  321  A    between atoms: _790  and  _792
REMARK  322  A    between atoms: _792  and  _793
REMARK  323  A    between atoms: _792  and  _795
REMARK  324  A    between atoms: _795  and  _796
REMARK  325  A    between atoms: _802  and  _804
REMARK  326  A    between atoms: _804  and  _805
REMARK  327  A    between atoms: _804  and  _807
REMARK  328  A    between atoms: _807  and  _808
REMARK  329  A    between atoms: _810  and  _812
REMARK  330  A    between atoms: _812  and  _813
REMARK  331  A    between atoms: _815  and  _817
REMARK  332  A    between atoms: _817  and  _818
REMARK  333  A    between atoms: _817  and  _820
REMARK  334  A    between atoms: _820  and  _821
REMARK  335  A    between atoms: _826  and  _827
REMARK  336  A    between atoms: _829  and  _831
REMARK  337  A    between atoms: _831  and  _832
REMARK  338  A    between atoms: _831  and  _834
REMARK  339  A    between atoms: _834  and  _835
REMARK  340  A    between atoms: _840  and  _841
REMARK  341  A    between atoms: _843  and  _845
REMARK  342  A    between atoms: _845  and  _846
REMARK  343  A    between atoms: _845  and  _848
REMARK  344  A    between atoms: _848  and  _849
REMARK  345  A    between atoms: _853  and  ZN_1037
REMARK  346  A    between atoms: _854  and  _856
REMARK  347  A    between atoms: _856  and  _857
REMARK  348  A    between atoms: _856  and  _859
REMARK  349  A    between atoms: _859  and  _860
REMARK  350  A    between atoms: _860  and  _861
REMARK  351  A    between atoms: _864  and  _866
REMARK  352  A    between atoms: _866  and  _867
REMARK  353  A    between atoms: _866  and  _869
REMARK  354  A    between atoms: _869  and  _870
REMARK  355  A    between atoms: _870  and  _871
REMARK  356  A    between atoms: _871  and  _872
REMARK  357  A    between atoms: _881  and  _883
REMARK  358  A    between atoms: _883  and  _884
REMARK  359  A    between atoms: _883  and  _886
REMARK  360  A    between atoms: _886  and  _887
REMARK  361  A    between atoms: _887  and  _888
REMARK  362  A    between atoms: _888  and  _889
REMARK  363  A    between atoms: _889  and  _890
REMARK  364  A    between atoms: _894  and  _896
REMARK  365  A    between atoms: _896  and  _897
REMARK  366  A    between atoms: _896  and  _899
REMARK  367  A    between atoms: _899  and  _900
REMARK  368  A    between atoms: _905  and  _906
REMARK  369  A    between atoms: _908  and  _910
REMARK  370  A    between atoms: _910  and  _911
REMARK  371  A    between atoms: _910  and  _913
REMARK  372  A    between atoms: _913  and  _914
REMARK  373  A    between atoms: _914  and  _915
REMARK  374  A    between atoms: _915  and  _916
REMARK  375  A    between atoms: _916  and  _917
REMARK  376  A    between atoms: _921  and  _923
REMARK  377  A    between atoms: _923  and  _924
REMARK  378  A    between atoms: _923  and  _926
REMARK  379  A    between atoms: _926  and  _927
REMARK  380  A    between atoms: _932  and  _933
REMARK  381  A    between atoms: _935  and  _937
REMARK  382  A    between atoms: _937  and  _938
REMARK  383  A    between atoms: _937  and  _940
REMARK  384  A    between atoms: _940  and  _941
REMARK  385  A    between atoms: _946  and  _947
REMARK  386  A    between atoms: _949  and  _951
REMARK  387  A    between atoms: _951  and  _952
REMARK  388  A    between atoms: _956  and  _957
REMARK  389  A    between atoms: _962  and  _964
REMARK  390  A    between atoms: _964  and  _965
REMARK  391  A    between atoms: _964  and  _967
REMARK  392  A    between atoms: _967  and  _968
REMARK  393  A    between atoms: _970  and  _972
REMARK  394  A    between atoms: _972  and  _973
REMARK  395  A    between atoms: _972  and  _975
REMARK  396  A    between atoms: _975  and  _976
REMARK  397  A    between atoms: _981  and  _983
REMARK  398  A    between atoms: _983  and  _984
REMARK  399  A    between atoms: _983  and  _986
REMARK  400  A    between atoms: _986  and  _987
REMARK  401  A    between atoms: _987  and  _988
REMARK  402  A    between atoms: _988  and  _989
REMARK  403  A    between atoms: _989  and  _990
REMARK  404  A    between atoms: _994  and  _996
REMARK  405  A    between atoms: _996  and  _997
REMARK  406  A    between atoms: _996  and  _999
REMARK  407  A    between atoms: _999  and  _1000
REMARK  408  A    between atoms: _1005  and  _1006
REMARK  409  A    between atoms: _1008  and  _1010
REMARK  410  A    between atoms: _1010  and  _1011
REMARK  411  A    between atoms: _1014  and  _1016
REMARK  412  A    between atoms: _1016  and  _1017
REMARK  413  A    between atoms: _1019  and  _1021
REMARK  414  A    between atoms: _1021  and  _1022
REMARK  415  A    between atoms: _1021  and  _1024
REMARK  416  A    between atoms: _1024  and  _1025
REMARK  417  A    between atoms: _1025  and  _1026
REMARK  418  A    between atoms: _1029  and  _1031
REMARK  419  A    between atoms: _1031  and  _1032
REMARK  420  A    between atoms: _1031  and  _1034
REMARK  421  A    between atoms: _1034  and  _1035
REMARK                            x       y       z     vdW  Elec       q    Type
REMARK                         _______ _______ _______ _____ _____    ______ ____
ROOT
ATOM      1  O   HOH     1      27.317  65.599  46.001  0.00  0.00    +0.000 OA
ENDROOT
TORSDOF 0
REMARK  Name = ../refined-set-2016/2xef/2xef_pocket.pdb
REMARK  421 active torsions:
REMARK  status: ('A' for Active; 'I' for Inactive)
REMARK    1  A    between atoms: _1  and  _3
REMARK    2  A    between atoms: _3  and  _4
REMARK    3  A    between atoms: _7  and  _9
REMARK    4  A    between atoms: _9  and  _10
REMARK    5  A    between atoms: _9  and  _12
REMARK    6  A    between atoms: _12  and  _13
REMARK    7  A    between atoms: _19  and  _21
REMARK    8  A    between atoms: _21  and  _22
REMARK    9  A    between atoms: _21  and  _24
REMARK   10  A    between atoms: _24  and  _25
REMARK   11  A    between atoms: _30  and  _31
REMARK   12  A    between atoms: _33  and  _35
REMARK   13  A    between atoms: _35  and  _36
REMARK   14  A    between atoms: _38  and  _40
REMARK   15  A    between atoms: _40  and  _41
REMARK   16  A    between atoms: _40  and  _43
REMARK   17  A    between atoms: _43  and  _44
REMARK   18  A    between atoms: _44  and  _45
REMARK   19  A    between atoms: _45  and  _46
REMARK   20  A    between atoms: _46  and  _47
REMARK   21  A    between atoms: _51  and  _53
REMARK   22  A    between atoms: _53  and  _54
REMARK   23  A    between atoms: _53  and  _56
REMARK   24  A    between atoms: _59  and  _61
REMARK   25  A    between atoms: _61  and  _62
REMARK   26  A    between atoms: _61  and  _64
REMARK   27  A    between atoms: _64  and  _65
REMARK   28  A    between atoms: _71  and  _73
REMARK   29  A    between atoms: _73  and  _74
REMARK   30  A    between atoms: _73  and  _76
REMARK   31  A    between atoms: _76  and  _77
REMARK   32  A    between atoms: _77  and  _78
REMARK   33  A    between atoms: _78  and  _79
REMARK   34  A    between atoms: _88  and  _90
REMARK   35  A    between atoms: _90  and  _91
REMARK   36  A    between atoms: _93  and  _95
REMARK   37  A    between atoms: _95  and  _96
REMARK   38  A    between atoms: _95  and  _98
REMARK   39  A    between atoms: _98  and  _99
REMARK   40  A    between atoms: _99  and  _100
REMARK   41  A    between atoms: _100  and  _101
REMARK   42  A    between atoms: _101  and  _102
REMARK   43  A    between atoms: _106  and  _108
REMARK   44  A    between atoms: _108  and  _109
REMARK   45  A    between atoms: _108  and  _111
REMARK   46  A    between atoms: _111  and  _112
REMARK   47  A    between atoms: _117  and  _118
REMARK   48  A    between atoms: _120  and  _122
REMARK   49  A    between atoms: _122  and  _123
REMARK   50  A    between atoms: _122  and  _125
REMARK   51  A    between atoms: _125  and  _126
REMARK   52  A    between atoms: _126  and  _127
REMARK   53  A    between atoms: _132  and  _134
REMARK   54  A    between atoms: _134  and  _135
REMARK   55  A    between atoms: _134  and  _137
REMARK   56  A    between atoms: _137  and  _138
REMARK   57  A    between atoms: _138  and  _139
REMARK   58  A    between atoms: _139  and  _140
REMARK   59  A    between atoms: _149  and  _151
REMARK   60  A    between atoms: _151  and  _152
REMARK   61  A    between atoms: _154  and  _156
REMARK   62  A    between atoms: _156  and  _157
REMARK   63  A    between atoms: _156  and  _159
REMARK   64  A    between atoms: _159  and  _160
REMARK   65  A    between atoms: _165  and  _167
REMARK   66  A    between atoms: _167  and  _168
REMARK   67  A    between atoms: _167  and  _170
REMARK   68  A    between atoms: _170  and  _171
REMARK   69  A    between atoms: _174  and  _176
REMARK   70  A    between atoms: _176  and  _177
REMARK   71  A    between atoms: _176  and  _179
REMARK   72  A    between atoms: _179  and  _180
REMARK   73  A    between atoms: _183  and  _185
REMARK   74  A    between atoms: _185  and  _186
REMARK   75  A    between atoms: _185  and  _188
REMARK   76  A    between atoms: _188  and  _189
REMARK   77  A    between atoms: _194  and  _196
REMARK   78  A    between atoms: _196  and  _197
REMARK   79  A    between atoms: _196  and  _199
REMARK   80  A    between atoms: _199  and  _200
REMARK   81  A    between atoms: _203  and  _205
REMARK   82  A    between atoms: _205  and  _206
REMARK   83  A    between atoms: _205  and  _208
REMARK   84  A    between atoms: _208  and  _209
REMARK   85  A    between atoms: _214  and  _216
REMARK   86  A    between atoms: _216  and  _217
REMARK   87  A    between atoms: _219  and  _221
REMARK   88  A    between atoms: _221  and  _222
REMARK   89  A    between atoms: _224  and  _226
REMARK   90  A    between atoms: _226  and  _227
REMARK   91  A    between atoms: _226  and  _229
REMARK   92  A    between atoms: _229  and  _230
REMARK   93  A    between atoms: _234  and  ZN_1038
REMARK   94  A    between atoms: _235  and  _237
REMARK   95  A    between atoms: _237  and  _238
REMARK   96  A    between atoms: _237  and  _240
REMARK   97  A    between atoms: _240  and  _241
REMARK   98  A    between atoms: _244  and  _246
REMARK   99  A    between atoms: _246  and  _247
REMARK  100  A    between atoms: _246  and  _249
REMARK  101  A    between atoms: _249  and  _250
REMARK  102  A    between atoms: _260  and  _262
REMARK  103  A    between atoms: _262  and  _263
REMARK  104  A    between atoms: _262  and  _265
REMARK  105  A    between atoms: _265  and  _266
REMARK  106  A    between atoms: _269  and  _271
REMARK  107  A    between atoms: _271  and  _272
REMARK  108  A    between atoms: _271  and  _274
REMARK  109  A    between atoms: _274  and  _275
REMARK  110  A    between atoms: _279  and  _280
REMARK  111  A    between atoms: _285  and  _287
REMARK  112  A    between atoms: _287  and  _288
REMARK  113  A    between atoms: _291  and  _293
REMARK  114  A    between atoms: _293  and  _294
REMARK  115  A    between atoms: _293  and  _296
REMARK  116  A    between atoms: _296  and  _297
REMARK  117  A    between atoms: _297  and  _298
REMARK  118  A    between atoms: _301  and  _303
REMARK  119  A    between atoms: _303  and  _304
REMARK  120  A    between atoms: _303  and  _306
REMARK  121  A    between atoms: _306  and  _307
REMARK  122  A    between atoms: _307  and  _308
REMARK  123  A    between atoms: _308  and  _310
REMARK  124  A    between atoms: _310  and  ZN_1037
REMARK  125  A    between atoms: _311  and  _313
REMARK  126  A    between atoms: _313  and  _314
REMARK  127  A    between atoms: _313  and  _316
REMARK  128  A    between atoms: _316  and  _317
REMARK  129  A    between atoms: _323  and  _325
REMARK  130  A    between atoms: _325  and  _326
REMARK  131  A    between atoms: _328  and  _330
REMARK  132  A    between atoms: _330  and  _331
REMARK  133  A    between atoms: _330  and  _333
REMARK  134  A    between atoms: _333  and  _334
REMARK  135  A    between atoms: _337  and  _339
REMARK  136  A    between atoms: _339  and  _340
REMARK  137  A    between atoms: _339  and  _342
REMARK  138  A    between atoms: _342  and  _343
REMARK  139  A    between atoms: _346  and  _348
REMARK  140  A    between atoms: _348  and  _349
REMARK  141  A    between atoms: _348  and  _351
REMARK  142  A    between atoms: _351  and  _352
REMARK  143  A    between atoms: _357  and  _359
REMARK  144  A    between atoms: _359  and  _360
REMARK  145  A    between atoms: _359  and  _362
REMARK  146  A    between atoms: _362  and  _363
REMARK  147  A    between atoms: _363  and  _365
REMARK  148  A    between atoms: _365  and  ZN_1038
REMARK  149  A    between atoms: _366  and  _368
REMARK  150  A    between atoms: _368  and  _369
REMARK  151  A    between atoms: _368  and  _371
REMARK  152  A    between atoms: _371  and  _372
REMARK  153  A    between atoms: _374  and  _376
REMARK  154  A    between atoms: _376  and  _377
REMARK  155  A    between atoms: _376  and  _379
REMARK  156  A    between atoms: _379  and  _380
REMARK  157  A    between atoms: _382  and  _384
REMARK  158  A    between atoms: _384  and  _385
REMARK  159  A    between atoms: _384  and  _387
REMARK  160  A    between atoms: _387  and  _388
REMARK  161  A    between atoms: _391  and  _393
REMARK  162  A    between atoms: _393  and  _394
REMARK  163  A    between atoms: _393  and  _396
REMARK  164  A    between atoms: _396  and  _397
REMARK  165  A    between atoms: _397  and  _398
REMARK  166  A    between atoms: _401  and  _403
REMARK  167  A    between atoms: _403  and  _404
REMARK  168  A    between atoms: _403  and  _406
REMARK  169  A    between atoms: _406  and  _407
REMARK  170  A    between atoms: _412  and  _413
REMARK  171  A    between atoms: _415  and  _417
REMARK  172  A    between atoms: _417  and  _418
REMARK  173  A    between atoms: _417  and  _420
REMARK  174  A    between atoms: _420  and  _421
REMARK  175  A    between atoms: _424  and  _426
REMARK  176  A    between atoms: _426  and  _427
REMARK  177  A    between atoms: _426  and  _429
REMARK  178  A    between atoms: _429  and  _430
REMARK  179  A    between atoms: _433  and  _435
REMARK  180  A    between atoms: _435  and  _436
REMARK  181  A    between atoms: _435  and  _438
REMARK  182  A    between atoms: _438  and  _439
REMARK  183  A    between atoms: _439  and  _440
REMARK  184  A    between atoms: _440  and  _441
REMARK  185  A    between atoms: _450  and  _452
REMARK  186  A    between atoms: _452  and  _453
REMARK  187  A    between atoms: _452  and  _455
REMARK  188  A    between atoms: _458  and  _460
REMARK  189  A    between atoms: _460  and  _461
REMARK  190  A    between atoms: _460  and  _463
REMARK  191  A    between atoms: _463  and  _464
REMARK  192  A    between atoms: _467  and  _469
REMARK  193  A    between atoms: _469  and  _470
REMARK  194  A    between atoms: _469  and  _472
REMARK  195  A    between atoms: _474  and  _476
REMARK  196  A    between atoms: _476  and  _477
REMARK  197  A    between atoms: _476  and  _479
REMARK  198  A    between atoms: _479  and  _480
REMARK  199  A    between atoms: _490  and  _492
REMARK  200  A    between atoms: _492  and  _493
REMARK  201  A    between atoms: _492  and  _495
REMARK  202  A    between atoms: _495  and  _496
REMARK  203  A    between atoms: _496  and  _497
REMARK  204  A    between atoms: _497  and  _498
REMARK  205  A    between atoms: _498  and  _499
REMARK  206  A    between atoms: _503  and  _505
REMARK  207  A    between atoms: _505  and  _506
REMARK  208  A    between atoms: _505  and  _508
REMARK  209  A    between atoms: _508  and  _509
REMARK  210  A    between atoms: _512  and  _513
REMARK  211  A    between atoms: _519  and  _520
REMARK  212  A    between atoms: _525  and  _527
REMARK  213  A    between atoms: _527  and  _528
REMARK  214  A    between atoms: _527  and  _530
REMARK  215  A    between atoms: _530  and  _531
REMARK  216  A    between atoms: _531  and  _532
REMARK  217  A    between atoms: _535  and  _537
REMARK  218  A    between atoms: _537  and  _538
REMARK  219  A    between atoms: _537  and  _540
REMARK  220  A    between atoms: _540  and  _541
REMARK  221  A    between atoms: _541  and  _542
REMARK  222  A    between atoms: _542  and  _543
REMARK  223  A    between atoms: _552  and  _554
REMARK  224  A    between atoms: _554  and  _555
REMARK  225  A    between atoms: _554  and  _557
REMARK  226  A    between atoms: _557  and  _558
REMARK  227  A    between atoms: _561  and  _563
REMARK  228  A    between atoms: _563  and  _564
REMARK  229  A    between atoms: _563  and  _566
REMARK  230  A    between atoms: _566  and  _567
REMARK  231  A    between atoms: _569  and  _571
REMARK  232  A    between atoms: _571  and  _572
REMARK  233  A    between atoms: _571  and  _574
REMARK  234  A    between atoms: _574  and  _575
REMARK  235  A    between atoms: _575  and  _576
REMARK  236  A    between atoms: _576  and  _577
REMARK  237  A    between atoms: _577  and  _578
REMARK  238  A    between atoms: _582  and  _584
REMARK  239  A    between atoms: _584  and  _585
REMARK  240  A    between atoms: _584  and  _587
REMARK  241  A    between atoms: _587  and  _588
REMARK  242  A    between atoms: _591  and  _593
REMARK  243  A    between atoms: _593  and  _594
REMARK  244  A    between atoms: _596  and  _598
REMARK  245  A    between atoms: _598  and  _599
REMARK  246  A    between atoms: _598  and  _601
REMARK  247  A    between atoms: _601  and  _602
REMARK  248  A    between atoms: _604  and  _606
REMARK  249  A    between atoms: _606  and  _607
REMARK  250  A    between atoms: _609  and  _611
REMARK  251  A    between atoms: _611  and  _612
REMARK  252  A    between atoms: _611  and  _614
REMARK  253  A    between atoms: _614  and  _615
REMARK  254  A    between atoms: _620  and  _622
REMARK  255  A    between atoms: _622  and  _623
REMARK  256  A    between atoms: _622  and  _625
REMARK  257  A    between atoms: _625  and  _626
REMARK  258  A    between atoms: _629  and  _631
REMARK  259  A    between atoms: _631  and  _632
REMARK  260  A    between atoms: _631  and  _634
REMARK  261  A    between atoms: _634  and  _635
REMARK  262  A    between atoms: _641  and  _643
REMARK  263  A    between atoms: _643  and  _644
REMARK  264  A    between atoms: _643  and  _646
REMARK  265  A    between atoms: _646  and  _647
REMARK  266  A    between atoms: _647  and  _648
REMARK  267  A    between atoms: _651  and  _653
REMARK  268  A    between atoms: _653  and  _654
REMARK  269  A    between atoms: _653  and  _656
REMARK  270  A    between atoms: _656  and  _657
REMARK  271  A    between atoms: _657  and  _658
REMARK  272  A    between atoms: _663  and  _665
REMARK  273  A    between atoms: _665  and  _666
REMARK  274  A    between atoms: _665  and  _668
REMARK  275  A    between atoms: _668  and  _669
REMARK  276  A    between atoms: _669  and  _670
REMARK  277  A    between atoms: _670  and  _671
REMARK  278  A    between atoms: _680  and  _682
REMARK  279  A    between atoms: _682  and  _683
REMARK  280  A    between atoms: _682  and  _685
REMARK  281  A    between atoms: _685  and  _686
REMARK  282  A    between atoms: _686  and  _687
REMARK  283  A    between atoms: _687  and  _688
REMARK  284  A    between atoms: _697  and  _699
REMARK  285  A    between atoms: _699  and  _700
REMARK  286  A    between atoms: _699  and  _702
REMARK  287  A    between atoms: _702  and  _703
REMARK  288  A    between atoms: _708  and  _709
REMARK  289  A    between atoms: _711  and  _713
REMARK  290  A    between atoms: _713  and  _714
REMARK  291  A    between atoms: _713  and  _716
REMARK  292  A    between atoms: _716  and  _717
REMARK  293  A    between atoms: _720  and  _722
REMARK  294  A    between atoms: _722  and  _723
REMARK  295  A    between atoms: _722  and  _725
REMARK  296  A    between atoms: _725  and  _726
REMARK  297  A    between atoms: _726  and  _727
REMARK  298  A    between atoms: _727  and  _728
REMARK  299  A    between atoms: _728  and  _729
REMARK  300  A    between atoms: _733  and  _735
REMARK  301  A    between atoms: _735  and  _736
REMARK  302  A    between atoms: _735  and  _738
REMARK  303  A    between atoms: _738  and  _739
REMARK  304  A    between atoms: _744  and  _746
REMARK  305  A    between atoms: _746  and  _747
REMARK  306  A    between atoms: _746  and  _749
REMARK  307  A    between atoms: _749  and  _750
REMARK  308  A    between atoms: _760  and  _762
REMARK  309  A    between atoms: _762  and  _763
REMARK  310  A    between atoms: _762  and  _765
REMARK  311  A    between atoms: _765  and  _766
REMARK  312  A    between atoms: _766  and  _767
REMARK  313  A    between atoms: _770  and  _772
REMARK  314  A    between atoms: _772  and  _773
REMARK  315  A    between atoms: _772  and  _775
REMARK  316  A    between atoms: _775  and  _776
REMARK  317  A    between atoms: _779  and  _781
REMARK  318  A    between atoms: _781  and  _782
REMARK  319  A    between atoms: _781  and  _784
REMARK  320  A    between atoms: _784  and  _785
REMARK  321  A    between atoms: _790  and  _792
REMARK  322  A    between atoms: _792  and  _793
REMARK  323  A    between atoms: _792  and  _795
REMARK  324  A    between atoms: _795  and  _796
REMARK  325  A    between atoms: _802  and  _804
REMARK  326  A    between atoms: _804  and  _805
REMARK  327  A    between atoms: _804  and  _807
REMARK  328  A    between atoms: _807  and  _808
REMARK  329  A    between atoms: _810  and  _812
REMARK  330  A    between atoms: _812  and  _813
REMARK  331  A    between atoms: _815  and  _817
REMARK  332  A    between atoms: _817  and  _818
REMARK  333  A    between atoms: _817  and  _820
REMARK  334  A    between atoms: _820  and  _821
REMARK  335  A    between atoms: _826  and  _827
REMARK  336  A    between atoms: _829  and  _831
REMARK  337  A    between atoms: _831  and  _832
REMARK  338  A    between atoms: _831  and  _834
REMARK  339  A    between atoms: _834  and  _835
REMARK  340  A    between atoms: _840  and  _841
REMARK  341  A    between atoms: _843  and  _845
REMARK  342  A    between atoms: _845  and  _846
REMARK  343  A    between atoms: _845  and  _848
REMARK  344  A    between atoms: _848  and  _849
REMARK  345  A    between atoms: _853  and  ZN_1037
REMARK  346  A    between atoms: _854  and  _856
REMARK  347  A    between atoms: _856  and  _857
REMARK  348  A    between atoms: _856  and  _859
REMARK  349  A    between atoms: _859  and  _860
REMARK  350  A    between atoms: _860  and  _861
REMARK  351  A    between atoms: _864  and  _866
REMARK  352  A    between atoms: _866  and  _867
REMARK  353  A    between atoms: _866  and  _869
REMARK  354  A    between atoms: _869  and  _870
REMARK  355  A    between atoms: _870  and  _871
REMARK  356  A    between atoms: _871  and  _872
REMARK  357  A    between atoms: _881  and  _883
REMARK  358  A    between atoms: _883  and  _884
REMARK  359  A    between atoms: _883  and  _886
REMARK  360  A    between atoms: _886  and  _887
REMARK  361  A    between atoms: _887  and  _888
REMARK  362  A    between atoms: _888  and  _889
REMARK  363  A    between atoms: _889  and  _890
REMARK  364  A    between atoms: _894  and  _896
REMARK  365  A    between atoms: _896  and  _897
REMARK  366  A    between atoms: _896  and  _899
REMARK  367  A    between atoms: _899  and  _900
REMARK  368  A    between atoms: _905  and  _906
REMARK  369  A    between atoms: _908  and  _910
REMARK  370  A    between atoms: _910  and  _911
REMARK  371  A    between atoms: _910  and  _913
REMARK  372  A    between atoms: _913  and  _914
REMARK  373  A    between atoms: _914  and  _915
REMARK  374  A    between atoms: _915  and  _916
REMARK  375  A    between atoms: _916  and  _917
REMARK  376  A    between atoms: _921  and  _923
REMARK  377  A    between atoms: _923  and  _924
REMARK  378  A    between atoms: _923  and  _926
REMARK  379  A    between atoms: _926  and  _927
REMARK  380  A    between atoms: _932  and  _933
REMARK  381  A    between atoms: _935  and  _937
REMARK  382  A    between atoms: _937  and  _938
REMARK  383  A    between atoms: _937  and  _940
REMARK  384  A    between atoms: _940  and  _941
REMARK  385  A    between atoms: _946  and  _947
REMARK  386  A    between atoms: _949  and  _951
REMARK  387  A    between atoms: _951  and  _952
REMARK  388  A    between atoms: _956  and  _957
REMARK  389  A    between atoms: _962  and  _964
REMARK  390  A    between atoms: _964  and  _965
REMARK  391  A    between atoms: _964  and  _967
REMARK  392  A    between atoms: _967  and  _968
REMARK  393  A    between atoms: _970  and  _972
REMARK  394  A    between atoms: _972  and  _973
REMARK  395  A    between atoms: _972  and  _975
REMARK  396  A    between atoms: _975  and  _976
REMARK  397  A    between atoms: _981  and  _983
REMARK  398  A    between atoms: _983  and  _984
REMARK  399  A    between atoms: _983  and  _986
REMARK  400  A    between atoms: _986  and  _987
REMARK  401  A    between atoms: _987  and  _988
REMARK  402  A    between atoms: _988  and  _989
REMARK  403  A    between atoms: _989  and  _990
REMARK  404  A    between atoms: _994  and  _996
REMARK  405  A    between atoms: _996  and  _997
REMARK  406  A    between atoms: _996  and  _999
REMARK  407  A    between atoms: _999  and  _1000
REMARK  408  A    between atoms: _1005  and  _1006
REMARK  409  A    between atoms: _1008  and  _1010
REMARK  410  A    between atoms: _1010  and  _1011
REMARK  411  A    between atoms: _1014  and  _1016
REMARK  412  A    between atoms: _1016  and  _1017
REMARK  413  A    between atoms: _1019  and  _1021
REMARK  414  A    between atoms: _1021  and  _1022
REMARK  415  A    between atoms: _1021  and  _1024
REMARK  416  A    between atoms: _1024  and  _1025
REMARK  417  A    between atoms: _1025  and  _1026
REMARK  418  A    between atoms: _1029  and  _1031
REMARK  419  A    between atoms: _1031  and  _1032
REMARK  420  A    between atoms: _1031  and  _1034
REMARK  421  A    between atoms: _1034  and  _1035
REMARK                            x       y       z     vdW  Elec       q    Type
REMARK                         _______ _______ _______ _____ _____    ______ ____
ROOT
ATOM      1  O   HOH     1      16.793  37.007  43.926  0.00  0.00    +0.000 OA
ENDROOT
TORSDOF 0
REMARK  Name = ../refined-set-2016/2xef/2xef_pocket.pdb
REMARK  421 active torsions:
REMARK  status: ('A' for Active; 'I' for Inactive)
REMARK    1  A    between atoms: _1  and  _3
REMARK    2  A    between atoms: _3  and  _4
REMARK    3  A    between atoms: _7  and  _9
REMARK    4  A    between atoms: _9  and  _10
REMARK    5  A    between atoms: _9  and  _12
REMARK    6  A    between atoms: _12  and  _13
REMARK    7  A    between atoms: _19  and  _21
REMARK    8  A    between atoms: _21  and  _22
REMARK    9  A    between atoms: _21  and  _24
REMARK   10  A    between atoms: _24  and  _25
REMARK   11  A    between atoms: _30  and  _31
REMARK   12  A    between atoms: _33  and  _35
REMARK   13  A    between atoms: _35  and  _36
REMARK   14  A    between atoms: _38  and  _40
REMARK   15  A    between atoms: _40  and  _41
REMARK   16  A    between atoms: _40  and  _43
REMARK   17  A    between atoms: _43  and  _44
REMARK   18  A    between atoms: _44  and  _45
REMARK   19  A    between atoms: _45  and  _46
REMARK   20  A    between atoms: _46  and  _47
REMARK   21  A    between atoms: _51  and  _53
REMARK   22  A    between atoms: _53  and  _54
REMARK   23  A    between atoms: _53  and  _56
REMARK   24  A    between atoms: _59  and  _61
REMARK   25  A    between atoms: _61  and  _62
REMARK   26  A    between atoms: _61  and  _64
REMARK   27  A    between atoms: _64  and  _65
REMARK   28  A    between atoms: _71  and  _73
REMARK   29  A    between atoms: _73  and  _74
REMARK   30  A    between atoms: _73  and  _76
REMARK   31  A    between atoms: _76  and  _77
REMARK   32  A    between atoms: _77  and  _78
REMARK   33  A    between atoms: _78  and  _79
REMARK   34  A    between atoms: _88  and  _90
REMARK   35  A    between atoms: _90  and  _91
REMARK   36  A    between atoms: _93  and  _95
REMARK   37  A    between atoms: _95  and  _96
REMARK   38  A    between atoms: _95  and  _98
REMARK   39  A    between atoms: _98  and  _99
REMARK   40  A    between atoms: _99  and  _100
REMARK   41  A    between atoms: _100  and  _101
REMARK   42  A    between atoms: _101  and  _102
REMARK   43  A    between atoms: _106  and  _108
REMARK   44  A    between atoms: _108  and  _109
REMARK   45  A    between atoms: _108  and  _111
REMARK   46  A    between atoms: _111  and  _112
REMARK   47  A    between atoms: _117  and  _118
REMARK   48  A    between atoms: _120  and  _122
REMARK   49  A    between atoms: _122  and  _123
REMARK   50  A    between atoms: _122  and  _125
REMARK   51  A    between atoms: _125  and  _126
REMARK   52  A    between atoms: _126  and  _127
REMARK   53  A    between atoms: _132  and  _134
REMARK   54  A    between atoms: _134  and  _135
REMARK   55  A    between atoms: _134  and  _137
REMARK   56  A    between atoms: _137  and  _138
REMARK   57  A    between atoms: _138  and  _139
REMARK   58  A    between atoms: _139  and  _140
REMARK   59  A    between atoms: _149  and  _151
REMARK   60  A    between atoms: _151  and  _152
REMARK   61  A    between atoms: _154  and  _156
REMARK   62  A    between atoms: _156  and  _157
REMARK   63  A    between atoms: _156  and  _159
REMARK   64  A    between atoms: _159  and  _160
REMARK   65  A    between atoms: _165  and  _167
REMARK   66  A    between atoms: _167  and  _168
REMARK   67  A    between atoms: _167  and  _170
REMARK   68  A    between atoms: _170  and  _171
REMARK   69  A    between atoms: _174  and  _176
REMARK   70  A    between atoms: _176  and  _177
REMARK   71  A    between atoms: _176  and  _179
REMARK   72  A    between atoms: _179  and  _180
REMARK   73  A    between atoms: _183  and  _185
REMARK   74  A    between atoms: _185  and  _186
REMARK   75  A    between atoms: _185  and  _188
REMARK   76  A    between atoms: _188  and  _189
REMARK   77  A    between atoms: _194  and  _196
REMARK   78  A    between atoms: _196  and  _197
REMARK   79  A    between atoms: _196  and  _199
REMARK   80  A    between atoms: _199  and  _200
REMARK   81  A    between atoms: _203  and  _205
REMARK   82  A    between atoms: _205  and  _206
REMARK   83  A    between atoms: _205  and  _208
REMARK   84  A    between atoms: _208  and  _209
REMARK   85  A    between atoms: _214  and  _216
REMARK   86  A    between atoms: _216  and  _217
REMARK   87  A    between atoms: _219  and  _221
REMARK   88  A    between atoms: _221  and  _222
REMARK   89  A    between atoms: _224  and  _226
REMARK   90  A    between atoms: _226  and  _227
REMARK   91  A    between atoms: _226  and  _229
REMARK   92  A    between atoms: _229  and  _230
REMARK   93  A    between atoms: _234  and  ZN_1038
REMARK   94  A    between atoms: _235  and  _237
REMARK   95  A    between atoms: _237  and  _238
REMARK   96  A    between atoms: _237  and  _240
REMARK   97  A    between atoms: _240  and  _241
REMARK   98  A    between atoms: _244  and  _246
REMARK   99  A    between atoms: _246  and  _247
REMARK  100  A    between atoms: _246  and  _249
REMARK  101  A    between atoms: _249  and  _250
REMARK  102  A    between atoms: _260  and  _262
REMARK  103  A    between atoms: _262  and  _263
REMARK  104  A    between atoms: _262  and  _265
REMARK  105  A    between atoms: _265  and  _266
REMARK  106  A    between atoms: _269  and  _271
REMARK  107  A    between atoms: _271  and  _272
REMARK  108  A    between atoms: _271  and  _274
REMARK  109  A    between atoms: _274  and  _275
REMARK  110  A    between atoms: _279  and  _280
REMARK  111  A    between atoms: _285  and  _287
REMARK  112  A    between atoms: _287  and  _288
REMARK  113  A    between atoms: _291  and  _293
REMARK  114  A    between atoms: _293  and  _294
REMARK  115  A    between atoms: _293  and  _296
REMARK  116  A    between atoms: _296  and  _297
REMARK  117  A    between atoms: _297  and  _298
REMARK  118  A    between atoms: _301  and  _303
REMARK  119  A    between atoms: _303  and  _304
REMARK  120  A    between atoms: _303  and  _306
REMARK  121  A    between atoms: _306  and  _307
REMARK  122  A    between atoms: _307  and  _308
REMARK  123  A    between atoms: _308  and  _310
REMARK  124  A    between atoms: _310  and  ZN_1037
REMARK  125  A    between atoms: _311  and  _313
REMARK  126  A    between atoms: _313  and  _314
REMARK  127  A    between atoms: _313  and  _316
REMARK  128  A    between atoms: _316  and  _317
REMARK  129  A    between atoms: _323  and  _325
REMARK  130  A    between atoms: _325  and  _326
REMARK  131  A    between atoms: _328  and  _330
REMARK  132  A    between atoms: _330  and  _331
REMARK  133  A    between atoms: _330  and  _333
REMARK  134  A    between atoms: _333  and  _334
REMARK  135  A    between atoms: _337  and  _339
REMARK  136  A    between atoms: _339  and  _340
REMARK  137  A    between atoms: _339  and  _342
REMARK  138  A    between atoms: _342  and  _343
REMARK  139  A    between atoms: _346  and  _348
REMARK  140  A    between atoms: _348  and  _349
REMARK  141  A    between atoms: _348  and  _351
REMARK  142  A    between atoms: _351  and  _352
REMARK  143  A    between atoms: _357  and  _359
REMARK  144  A    between atoms: _359  and  _360
REMARK  145  A    between atoms: _359  and  _362
REMARK  146  A    between atoms: _362  and  _363
REMARK  147  A    between atoms: _363  and  _365
REMARK  148  A    between atoms: _365  and  ZN_1038
REMARK  149  A    between atoms: _366  and  _368
REMARK  150  A    between atoms: _368  and  _369
REMARK  151  A    between atoms: _368  and  _371
REMARK  152  A    between atoms: _371  and  _372
REMARK  153  A    between atoms: _374  and  _376
REMARK  154  A    between atoms: _376  and  _377
REMARK  155  A    between atoms: _376  and  _379
REMARK  156  A    between atoms: _379  and  _380
REMARK  157  A    between atoms: _382  and  _384
REMARK  158  A    between atoms: _384  and  _385
REMARK  159  A    between atoms: _384  and  _387
REMARK  160  A    between atoms: _387  and  _388
REMARK  161  A    between atoms: _391  and  _393
REMARK  162  A    between atoms: _393  and  _394
REMARK  163  A    between atoms: _393  and  _396
REMARK  164  A    between atoms: _396  and  _397
REMARK  165  A    between atoms: _397  and  _398
REMARK  166  A    between atoms: _401  and  _403
REMARK  167  A    between atoms: _403  and  _404
REMARK  168  A    between atoms: _403  and  _406
REMARK  169  A    between atoms: _406  and  _407
REMARK  170  A    between atoms: _412  and  _413
REMARK  171  A    between atoms: _415  and  _417
REMARK  172  A    between atoms: _417  and  _418
REMARK  173  A    between atoms: _417  and  _420
REMARK  174  A    between atoms: _420  and  _421
REMARK  175  A    between atoms: _424  and  _426
REMARK  176  A    between atoms: _426  and  _427
REMARK  177  A    between atoms: _426  and  _429
REMARK  178  A    between atoms: _429  and  _430
REMARK  179  A    between atoms: _433  and  _435
REMARK  180  A    between atoms: _435  and  _436
REMARK  181  A    between atoms: _435  and  _438
REMARK  182  A    between atoms: _438  and  _439
REMARK  183  A    between atoms: _439  and  _440
REMARK  184  A    between atoms: _440  and  _441
REMARK  185  A    between atoms: _450  and  _452
REMARK  186  A    between atoms: _452  and  _453
REMARK  187  A    between atoms: _452  and  _455
REMARK  188  A    between atoms: _458  and  _460
REMARK  189  A    between atoms: _460  and  _461
REMARK  190  A    between atoms: _460  and  _463
REMARK  191  A    between atoms: _463  and  _464
REMARK  192  A    between atoms: _467  and  _469
REMARK  193  A    between atoms: _469  and  _470
REMARK  194  A    between atoms: _469  and  _472
REMARK  195  A    between atoms: _474  and  _476
REMARK  196  A    between atoms: _476  and  _477
REMARK  197  A    between atoms: _476  and  _479
REMARK  198  A    between atoms: _479  and  _480
REMARK  199  A    between atoms: _490  and  _492
REMARK  200  A    between atoms: _492  and  _493
REMARK  201  A    between atoms: _492  and  _495
REMARK  202  A    between atoms: _495  and  _496
REMARK  203  A    between atoms: _496  and  _497
REMARK  204  A    between atoms: _497  and  _498
REMARK  205  A    between atoms: _498  and  _499
REMARK  206  A    between atoms: _503  and  _505
REMARK  207  A    between atoms: _505  and  _506
REMARK  208  A    between atoms: _505  and  _508
REMARK  209  A    between atoms: _508  and  _509
REMARK  210  A    between atoms: _512  and  _513
REMARK  211  A    between atoms: _519  and  _520
REMARK  212  A    between atoms: _525  and  _527
REMARK  213  A    between atoms: _527  and  _528
REMARK  214  A    between atoms: _527  and  _530
REMARK  215  A    between atoms: _530  and  _531
REMARK  216  A    between atoms: _531  and  _532
REMARK  217  A    between atoms: _535  and  _537
REMARK  218  A    between atoms: _537  and  _538
REMARK  219  A    between atoms: _537  and  _540
REMARK  220  A    between atoms: _540  and  _541
REMARK  221  A    between atoms: _541  and  _542
REMARK  222  A    between atoms: _542  and  _543
REMARK  223  A    between atoms: _552  and  _554
REMARK  224  A    between atoms: _554  and  _555
REMARK  225  A    between atoms: _554  and  _557
REMARK  226  A    between atoms: _557  and  _558
REMARK  227  A    between atoms: _561  and  _563
REMARK  228  A    between atoms: _563  and  _564
REMARK  229  A    between atoms: _563  and  _566
REMARK  230  A    between atoms: _566  and  _567
REMARK  231  A    between atoms: _569  and  _571
REMARK  232  A    between atoms: _571  and  _572
REMARK  233  A    between atoms: _571  and  _574
REMARK  234  A    between atoms: _574  and  _575
REMARK  235  A    between atoms: _575  and  _576
REMARK  236  A    between atoms: _576  and  _577
REMARK  237  A    between atoms: _577  and  _578
REMARK  238  A    between atoms: _582  and  _584
REMARK  239  A    between atoms: _584  and  _585
REMARK  240  A    between atoms: _584  and  _587
REMARK  241  A    between atoms: _587  and  _588
REMARK  242  A    between atoms: _591  and  _593
REMARK  243  A    between atoms: _593  and  _594
REMARK  244  A    between atoms: _596  and  _598
REMARK  245  A    between atoms: _598  and  _599
REMARK  246  A    between atoms: _598  and  _601
REMARK  247  A    between atoms: _601  and  _602
REMARK  248  A    between atoms: _604  and  _606
REMARK  249  A    between atoms: _606  and  _607
REMARK  250  A    between atoms: _609  and  _611
REMARK  251  A    between atoms: _611  and  _612
REMARK  252  A    between atoms: _611  and  _614
REMARK  253  A    between atoms: _614  and  _615
REMARK  254  A    between atoms: _620  and  _622
REMARK  255  A    between atoms: _622  and  _623
REMARK  256  A    between atoms: _622  and  _625
REMARK  257  A    between atoms: _625  and  _626
REMARK  258  A    between atoms: _629  and  _631
REMARK  259  A    between atoms: _631  and  _632
REMARK  260  A    between atoms: _631  and  _634
REMARK  261  A    between atoms: _634  and  _635
REMARK  262  A    between atoms: _641  and  _643
REMARK  263  A    between atoms: _643  and  _644
REMARK  264  A    between atoms: _643  and  _646
REMARK  265  A    between atoms: _646  and  _647
REMARK  266  A    between atoms: _647  and  _648
REMARK  267  A    between atoms: _651  and  _653
REMARK  268  A    between atoms: _653  and  _654
REMARK  269  A    between atoms: _653  and  _656
REMARK  270  A    between atoms: _656  and  _657
REMARK  271  A    between atoms: _657  and  _658
REMARK  272  A    between atoms: _663  and  _665
REMARK  273  A    between atoms: _665  and  _666
REMARK  274  A    between atoms: _665  and  _668
REMARK  275  A    between atoms: _668  and  _669
REMARK  276  A    between atoms: _669  and  _670
REMARK  277  A    between atoms: _670  and  _671
REMARK  278  A    between atoms: _680  and  _682
REMARK  279  A    between atoms: _682  and  _683
REMARK  280  A    between atoms: _682  and  _685
REMARK  281  A    between atoms: _685  and  _686
REMARK  282  A    between atoms: _686  and  _687
REMARK  283  A    between atoms: _687  and  _688
REMARK  284  A    between atoms: _697  and  _699
REMARK  285  A    between atoms: _699  and  _700
REMARK  286  A    between atoms: _699  and  _702
REMARK  287  A    between atoms: _702  and  _703
REMARK  288  A    between atoms: _708  and  _709
REMARK  289  A    between atoms: _711  and  _713
REMARK  290  A    between atoms: _713  and  _714
REMARK  291  A    between atoms: _713  and  _716
REMARK  292  A    between atoms: _716  and  _717
REMARK  293  A    between atoms: _720  and  _722
REMARK  294  A    between atoms: _722  and  _723
REMARK  295  A    between atoms: _722  and  _725
REMARK  296  A    between atoms: _725  and  _726
REMARK  297  A    between atoms: _726  and  _727
REMARK  298  A    between atoms: _727  and  _728
REMARK  299  A    between atoms: _728  and  _729
REMARK  300  A    between atoms: _733  and  _735
REMARK  301  A    between atoms: _735  and  _736
REMARK  302  A    between atoms: _735  and  _738
REMARK  303  A    between atoms: _738  and  _739
REMARK  304  A    between atoms: _744  and  _746
REMARK  305  A    between atoms: _746  and  _747
REMARK  306  A    between atoms: _746  and  _749
REMARK  307  A    between atoms: _749  and  _750
REMARK  308  A    between atoms: _760  and  _762
REMARK  309  A    between atoms: _762  and  _763
REMARK  310  A    between atoms: _762  and  _765
REMARK  311  A    between atoms: _765  and  _766
REMARK  312  A    between atoms: _766  and  _767
REMARK  313  A    between atoms: _770  and  _772
REMARK  314  A    between atoms: _772  and  _773
REMARK  315  A    between atoms: _772  and  _775
REMARK  316  A    between atoms: _775  and  _776
REMARK  317  A    between atoms: _779  and  _781
REMARK  318  A    between atoms: _781  and  _782
REMARK  319  A    between atoms: _781  and  _784
REMARK  320  A    between atoms: _784  and  _785
REMARK  321  A    between atoms: _790  and  _792
REMARK  322  A    between atoms: _792  and  _793
REMARK  323  A    between atoms: _792  and  _795
REMARK  324  A    between atoms: _795  and  _796
REMARK  325  A    between atoms: _802  and  _804
REMARK  326  A    between atoms: _804  and  _805
REMARK  327  A    between atoms: _804  and  _807
REMARK  328  A    between atoms: _807  and  _808
REMARK  329  A    between atoms: _810  and  _812
REMARK  330  A    between atoms: _812  and  _813
REMARK  331  A    between atoms: _815  and  _817
REMARK  332  A    between atoms: _817  and  _818
REMARK  333  A    between atoms: _817  and  _820
REMARK  334  A    between atoms: _820  and  _821
REMARK  335  A    between atoms: _826  and  _827
REMARK  336  A    between atoms: _829  and  _831
REMARK  337  A    between atoms: _831  and  _832
REMARK  338  A    between atoms: _831  and  _834
REMARK  339  A    between atoms: _834  and  _835
REMARK  340  A    between atoms: _840  and  _841
REMARK  341  A    between atoms: _843  and  _845
REMARK  342  A    between atoms: _845  and  _846
REMARK  343  A    between atoms: _845  and  _848
REMARK  344  A    between atoms: _848  and  _849
REMARK  345  A    between atoms: _853  and  ZN_1037
REMARK  346  A    between atoms: _854  and  _856
REMARK  347  A    between atoms: _856  and  _857
REMARK  348  A    between atoms: _856  and  _859
REMARK  349  A    between atoms: _859  and  _860
REMARK  350  A    between atoms: _860  and  _861
REMARK  351  A    between atoms: _864  and  _866
REMARK  352  A    between atoms: _866  and  _867
REMARK  353  A    between atoms: _866  and  _869
REMARK  354  A    between atoms: _869  and  _870
REMARK  355  A    between atoms: _870  and  _871
REMARK  356  A    between atoms: _871  and  _872
REMARK  357  A    between atoms: _881  and  _883
REMARK  358  A    between atoms: _883  and  _884
REMARK  359  A    between atoms: _883  and  _886
REMARK  360  A    between atoms: _886  and  _887
REMARK  361  A    between atoms: _887  and  _888
REMARK  362  A    between atoms: _888  and  _889
REMARK  363  A    between atoms: _889  and  _890
REMARK  364  A    between atoms: _894  and  _896
REMARK  365  A    between atoms: _896  and  _897
REMARK  366  A    between atoms: _896  and  _899
REMARK  367  A    between atoms: _899  and  _900
REMARK  368  A    between atoms: _905  and  _906
REMARK  369  A    between atoms: _908  and  _910
REMARK  370  A    between atoms: _910  and  _911
REMARK  371  A    between atoms: _910  and  _913
REMARK  372  A    between atoms: _913  and  _914
REMARK  373  A    between atoms: _914  and  _915
REMARK  374  A    between atoms: _915  and  _916
REMARK  375  A    between atoms: _916  and  _917
REMARK  376  A    between atoms: _921  and  _923
REMARK  377  A    between atoms: _923  and  _924
REMARK  378  A    between atoms: _923  and  _926
REMARK  379  A    between atoms: _926  and  _927
REMARK  380  A    between atoms: _932  and  _933
REMARK  381  A    between atoms: _935  and  _937
REMARK  382  A    between atoms: _937  and  _938
REMARK  383  A    between atoms: _937  and  _940
REMARK  384  A    between atoms: _940  and  _941
REMARK  385  A    between atoms: _946  and  _947
REMARK  386  A    between atoms: _949  and  _951
REMARK  387  A    between atoms: _951  and  _952
REMARK  388  A    between atoms: _956  and  _957
REMARK  389  A    between atoms: _962  and  _964
REMARK  390  A    between atoms: _964  and  _965
REMARK  391  A    between atoms: _964  and  _967
REMARK  392  A    between atoms: _967  and  _968
REMARK  393  A    between atoms: _970  and  _972
REMARK  394  A    between atoms: _972  and  _973
REMARK  395  A    between atoms: _972  and  _975
REMARK  396  A    between atoms: _975  and  _976
REMARK  397  A    between atoms: _981  and  _983
REMARK  398  A    between atoms: _983  and  _984
REMARK  399  A    between atoms: _983  and  _986
REMARK  400  A    between atoms: _986  and  _987
REMARK  401  A    between atoms: _987  and  _988
REMARK  402  A    between atoms: _988  and  _989
REMARK  403  A    between atoms: _989  and  _990
REMARK  404  A    between atoms: _994  and  _996
REMARK  405  A    between atoms: _996  and  _997
REMARK  406  A    between atoms: _996  and  _999
REMARK  407  A    between atoms: _999  and  _1000
REMARK  408  A    between atoms: _1005  and  _1006
REMARK  409  A    between atoms: _1008  and  _1010
REMARK  410  A    between atoms: _1010  and  _1011
REMARK  411  A    between atoms: _1014  and  _1016
REMARK  412  A    between atoms: _1016  and  _1017
REMARK  413  A    between atoms: _1019  and  _1021
REMARK  414  A    between atoms: _1021  and  _1022
REMARK  415  A    between atoms: _1021  and  _1024
REMARK  416  A    between atoms: _1024  and  _1025
REMARK  417  A    between atoms: _1025  and  _1026
REMARK  418  A    between atoms: _1029  and  _1031
REMARK  419  A    between atoms: _1031  and  _1032
REMARK  420  A    between atoms: _1031  and  _1034
REMARK  421  A    between atoms: _1034  and  _1035
REMARK                            x       y       z     vdW  Elec       q    Type
REMARK                         _______ _______ _______ _____ _____    ______ ____
ROOT
ATOM      1  O   HOH     1       7.954  50.303  40.726  0.00  0.00    +0.000 OA
ENDROOT
TORSDOF 0
REMARK  Name = ../refined-set-2016/2xef/2xef_pocket.pdb
REMARK  421 active torsions:
REMARK  status: ('A' for Active; 'I' for Inactive)
REMARK    1  A    between atoms: _1  and  _3
REMARK    2  A    between atoms: _3  and  _4
REMARK    3  A    between atoms: _7  and  _9
REMARK    4  A    between atoms: _9  and  _10
REMARK    5  A    between atoms: _9  and  _12
REMARK    6  A    between atoms: _12  and  _13
REMARK    7  A    between atoms: _19  and  _21
REMARK    8  A    between atoms: _21  and  _22
REMARK    9  A    between atoms: _21  and  _24
REMARK   10  A    between atoms: _24  and  _25
REMARK   11  A    between atoms: _30  and  _31
REMARK   12  A    between atoms: _33  and  _35
REMARK   13  A    between atoms: _35  and  _36
REMARK   14  A    between atoms: _38  and  _40
REMARK   15  A    between atoms: _40  and  _41
REMARK   16  A    between atoms: _40  and  _43
REMARK   17  A    between atoms: _43  and  _44
REMARK   18  A    between atoms: _44  and  _45
REMARK   19  A    between atoms: _45  and  _46
REMARK   20  A    between atoms: _46  and  _47
REMARK   21  A    between atoms: _51  and  _53
REMARK   22  A    between atoms: _53  and  _54
REMARK   23  A    between atoms: _53  and  _56
REMARK   24  A    between atoms: _59  and  _61
REMARK   25  A    between atoms: _61  and  _62
REMARK   26  A    between atoms: _61  and  _64
REMARK   27  A    between atoms: _64  and  _65
REMARK   28  A    between atoms: _71  and  _73
REMARK   29  A    between atoms: _73  and  _74
REMARK   30  A    between atoms: _73  and  _76
REMARK   31  A    between atoms: _76  and  _77
REMARK   32  A    between atoms: _77  and  _78
REMARK   33  A    between atoms: _78  and  _79
REMARK   34  A    between atoms: _88  and  _90
REMARK   35  A    between atoms: _90  and  _91
REMARK   36  A    between atoms: _93  and  _95
REMARK   37  A    between atoms: _95  and  _96
REMARK   38  A    between atoms: _95  and  _98
REMARK   39  A    between atoms: _98  and  _99
REMARK   40  A    between atoms: _99  and  _100
REMARK   41  A    between atoms: _100  and  _101
REMARK   42  A    between atoms: _101  and  _102
REMARK   43  A    between atoms: _106  and  _108
REMARK   44  A    between atoms: _108  and  _109
REMARK   45  A    between atoms: _108  and  _111
REMARK   46  A    between atoms: _111  and  _112
REMARK   47  A    between atoms: _117  and  _118
REMARK   48  A    between atoms: _120  and  _122
REMARK   49  A    between atoms: _122  and  _123
REMARK   50  A    between atoms: _122  and  _125
REMARK   51  A    between atoms: _125  and  _126
REMARK   52  A    between atoms: _126  and  _127
REMARK   53  A    between atoms: _132  and  _134
REMARK   54  A    between atoms: _134  and  _135
REMARK   55  A    between atoms: _134  and  _137
REMARK   56  A    between atoms: _137  and  _138
REMARK   57  A    between atoms: _138  and  _139
REMARK   58  A    between atoms: _139  and  _140
REMARK   59  A    between atoms: _149  and  _151
REMARK   60  A    between atoms: _151  and  _152
REMARK   61  A    between atoms: _154  and  _156
REMARK   62  A    between atoms: _156  and  _157
REMARK   63  A    between atoms: _156  and  _159
REMARK   64  A    between atoms: _159  and  _160
REMARK   65  A    between atoms: _165  and  _167
REMARK   66  A    between atoms: _167  and  _168
REMARK   67  A    between atoms: _167  and  _170
REMARK   68  A    between atoms: _170  and  _171
REMARK   69  A    between atoms: _174  and  _176
REMARK   70  A    between atoms: _176  and  _177
REMARK   71  A    between atoms: _176  and  _179
REMARK   72  A    between atoms: _179  and  _180
REMARK   73  A    between atoms: _183  and  _185
REMARK   74  A    between atoms: _185  and  _186
REMARK   75  A    between atoms: _185  and  _188
REMARK   76  A    between atoms: _188  and  _189
REMARK   77  A    between atoms: _194  and  _196
REMARK   78  A    between atoms: _196  and  _197
REMARK   79  A    between atoms: _196  and  _199
REMARK   80  A    between atoms: _199  and  _200
REMARK   81  A    between atoms: _203  and  _205
REMARK   82  A    between atoms: _205  and  _206
REMARK   83  A    between atoms: _205  and  _208
REMARK   84  A    between atoms: _208  and  _209
REMARK   85  A    between atoms: _214  and  _216
REMARK   86  A    between atoms: _216  and  _217
REMARK   87  A    between atoms: _219  and  _221
REMARK   88  A    between atoms: _221  and  _222
REMARK   89  A    between atoms: _224  and  _226
REMARK   90  A    between atoms: _226  and  _227
REMARK   91  A    between atoms: _226  and  _229
REMARK   92  A    between atoms: _229  and  _230
REMARK   93  A    between atoms: _234  and  ZN_1038
REMARK   94  A    between atoms: _235  and  _237
REMARK   95  A    between atoms: _237  and  _238
REMARK   96  A    between atoms: _237  and  _240
REMARK   97  A    between atoms: _240  and  _241
REMARK   98  A    between atoms: _244  and  _246
REMARK   99  A    between atoms: _246  and  _247
REMARK  100  A    between atoms: _246  and  _249
REMARK  101  A    between atoms: _249  and  _250
REMARK  102  A    between atoms: _260  and  _262
REMARK  103  A    between atoms: _262  and  _263
REMARK  104  A    between atoms: _262  and  _265
REMARK  105  A    between atoms: _265  and  _266
REMARK  106  A    between atoms: _269  and  _271
REMARK  107  A    between atoms: _271  and  _272
REMARK  108  A    between atoms: _271  and  _274
REMARK  109  A    between atoms: _274  and  _275
REMARK  110  A    between atoms: _279  and  _280
REMARK  111  A    between atoms: _285  and  _287
REMARK  112  A    between atoms: _287  and  _288
REMARK  113  A    between atoms: _291  and  _293
REMARK  114  A    between atoms: _293  and  _294
REMARK  115  A    between atoms: _293  and  _296
REMARK  116  A    between atoms: _296  and  _297
REMARK  117  A    between atoms: _297  and  _298
REMARK  118  A    between atoms: _301  and  _303
REMARK  119  A    between atoms: _303  and  _304
REMARK  120  A    between atoms: _303  and  _306
REMARK  121  A    between atoms: _306  and  _307
REMARK  122  A    between atoms: _307  and  _308
REMARK  123  A    between atoms: _308  and  _310
REMARK  124  A    between atoms: _310  and  ZN_1037
REMARK  125  A    between atoms: _311  and  _313
REMARK  126  A    between atoms: _313  and  _314
REMARK  127  A    between atoms: _313  and  _316
REMARK  128  A    between atoms: _316  and  _317
REMARK  129  A    between atoms: _323  and  _325
REMARK  130  A    between atoms: _325  and  _326
REMARK  131  A    between atoms: _328  and  _330
REMARK  132  A    between atoms: _330  and  _331
REMARK  133  A    between atoms: _330  and  _333
REMARK  134  A    between atoms: _333  and  _334
REMARK  135  A    between atoms: _337  and  _339
REMARK  136  A    between atoms: _339  and  _340
REMARK  137  A    between atoms: _339  and  _342
REMARK  138  A    between atoms: _342  and  _343
REMARK  139  A    between atoms: _346  and  _348
REMARK  140  A    between atoms: _348  and  _349
REMARK  141  A    between atoms: _348  and  _351
REMARK  142  A    between atoms: _351  and  _352
REMARK  143  A    between atoms: _357  and  _359
REMARK  144  A    between atoms: _359  and  _360
REMARK  145  A    between atoms: _359  and  _362
REMARK  146  A    between atoms: _362  and  _363
REMARK  147  A    between atoms: _363  and  _365
REMARK  148  A    between atoms: _365  and  ZN_1038
REMARK  149  A    between atoms: _366  and  _368
REMARK  150  A    between atoms: _368  and  _369
REMARK  151  A    between atoms: _368  and  _371
REMARK  152  A    between atoms: _371  and  _372
REMARK  153  A    between atoms: _374  and  _376
REMARK  154  A    between atoms: _376  and  _377
REMARK  155  A    between atoms: _376  and  _379
REMARK  156  A    between atoms: _379  and  _380
REMARK  157  A    between atoms: _382  and  _384
REMARK  158  A    between atoms: _384  and  _385
REMARK  159  A    between atoms: _384  and  _387
REMARK  160  A    between atoms: _387  and  _388
REMARK  161  A    between atoms: _391  and  _393
REMARK  162  A    between atoms: _393  and  _394
REMARK  163  A    between atoms: _393  and  _396
REMARK  164  A    between atoms: _396  and  _397
REMARK  165  A    between atoms: _397  and  _398
REMARK  166  A    between atoms: _401  and  _403
REMARK  167  A    between atoms: _403  and  _404
REMARK  168  A    between atoms: _403  and  _406
REMARK  169  A    between atoms: _406  and  _407
REMARK  170  A    between atoms: _412  and  _413
REMARK  171  A    between atoms: _415  and  _417
REMARK  172  A    between atoms: _417  and  _418
REMARK  173  A    between atoms: _417  and  _420
REMARK  174  A    between atoms: _420  and  _421
REMARK  175  A    between atoms: _424  and  _426
REMARK  176  A    between atoms: _426  and  _427
REMARK  177  A    between atoms: _426  and  _429
REMARK  178  A    between atoms: _429  and  _430
REMARK  179  A    between atoms: _433  and  _435
REMARK  180  A    between atoms: _435  and  _436
REMARK  181  A    between atoms: _435  and  _438
REMARK  182  A    between atoms: _438  and  _439
REMARK  183  A    between atoms: _439  and  _440
REMARK  184  A    between atoms: _440  and  _441
REMARK  185  A    between atoms: _450  and  _452
REMARK  186  A    between atoms: _452  and  _453
REMARK  187  A    between atoms: _452  and  _455
REMARK  188  A    between atoms: _458  and  _460
REMARK  189  A    between atoms: _460  and  _461
REMARK  190  A    between atoms: _460  and  _463
REMARK  191  A    between atoms: _463  and  _464
REMARK  192  A    between atoms: _467  and  _469
REMARK  193  A    between atoms: _469  and  _470
REMARK  194  A    between atoms: _469  and  _472
REMARK  195  A    between atoms: _474  and  _476
REMARK  196  A    between atoms: _476  and  _477
REMARK  197  A    between atoms: _476  and  _479
REMARK  198  A    between atoms: _479  and  _480
REMARK  199  A    between atoms: _490  and  _492
REMARK  200  A    between atoms: _492  and  _493
REMARK  201  A    between atoms: _492  and  _495
REMARK  202  A    between atoms: _495  and  _496
REMARK  203  A    between atoms: _496  and  _497
REMARK  204  A    between atoms: _497  and  _498
REMARK  205  A    between atoms: _498  and  _499
REMARK  206  A    between atoms: _503  and  _505
REMARK  207  A    between atoms: _505  and  _506
REMARK  208  A    between atoms: _505  and  _508
REMARK  209  A    between atoms: _508  and  _509
REMARK  210  A    between atoms: _512  and  _513
REMARK  211  A    between atoms: _519  and  _520
REMARK  212  A    between atoms: _525  and  _527
REMARK  213  A    between atoms: _527  and  _528
REMARK  214  A    between atoms: _527  and  _530
REMARK  215  A    between atoms: _530  and  _531
REMARK  216  A    between atoms: _531  and  _532
REMARK  217  A    between atoms: _535  and  _537
REMARK  218  A    between atoms: _537  and  _538
REMARK  219  A    between atoms: _537  and  _540
REMARK  220  A    between atoms: _540  and  _541
REMARK  221  A    between atoms: _541  and  _542
REMARK  222  A    between atoms: _542  and  _543
REMARK  223  A    between atoms: _552  and  _554
REMARK  224  A    between atoms: _554  and  _555
REMARK  225  A    between atoms: _554  and  _557
REMARK  226  A    between atoms: _557  and  _558
REMARK  227  A    between atoms: _561  and  _563
REMARK  228  A    between atoms: _563  and  _564
REMARK  229  A    between atoms: _563  and  _566
REMARK  230  A    between atoms: _566  and  _567
REMARK  231  A    between atoms: _569  and  _571
REMARK  232  A    between atoms: _571  and  _572
REMARK  233  A    between atoms: _571  and  _574
REMARK  234  A    between atoms: _574  and  _575
REMARK  235  A    between atoms: _575  and  _576
REMARK  236  A    between atoms: _576  and  _577
REMARK  237  A    between atoms: _577  and  _578
REMARK  238  A    between atoms: _582  and  _584
REMARK  239  A    between atoms: _584  and  _585
REMARK  240  A    between atoms: _584  and  _587
REMARK  241  A    between atoms: _587  and  _588
REMARK  242  A    between atoms: _591  and  _593
REMARK  243  A    between atoms: _593  and  _594
REMARK  244  A    between atoms: _596  and  _598
REMARK  245  A    between atoms: _598  and  _599
REMARK  246  A    between atoms: _598  and  _601
REMARK  247  A    between atoms: _601  and  _602
REMARK  248  A    between atoms: _604  and  _606
REMARK  249  A    between atoms: _606  and  _607
REMARK  250  A    between atoms: _609  and  _611
REMARK  251  A    between atoms: _611  and  _612
REMARK  252  A    between atoms: _611  and  _614
REMARK  253  A    between atoms: _614  and  _615
REMARK  254  A    between atoms: _620  and  _622
REMARK  255  A    between atoms: _622  and  _623
REMARK  256  A    between atoms: _622  and  _625
REMARK  257  A    between atoms: _625  and  _626
REMARK  258  A    between atoms: _629  and  _631
REMARK  259  A    between atoms: _631  and  _632
REMARK  260  A    between atoms: _631  and  _634
REMARK  261  A    between atoms: _634  and  _635
REMARK  262  A    between atoms: _641  and  _643
REMARK  263  A    between atoms: _643  and  _644
REMARK  264  A    between atoms: _643  and  _646
REMARK  265  A    between atoms: _646  and  _647
REMARK  266  A    between atoms: _647  and  _648
REMARK  267  A    between atoms: _651  and  _653
REMARK  268  A    between atoms: _653  and  _654
REMARK  269  A    between atoms: _653  and  _656
REMARK  270  A    between atoms: _656  and  _657
REMARK  271  A    between atoms: _657  and  _658
REMARK  272  A    between atoms: _663  and  _665
REMARK  273  A    between atoms: _665  and  _666
REMARK  274  A    between atoms: _665  and  _668
REMARK  275  A    between atoms: _668  and  _669
REMARK  276  A    between atoms: _669  and  _670
REMARK  277  A    between atoms: _670  and  _671
REMARK  278  A    between atoms: _680  and  _682
REMARK  279  A    between atoms: _682  and  _683
REMARK  280  A    between atoms: _682  and  _685
REMARK  281  A    between atoms: _685  and  _686
REMARK  282  A    between atoms: _686  and  _687
REMARK  283  A    between atoms: _687  and  _688
REMARK  284  A    between atoms: _697  and  _699
REMARK  285  A    between atoms: _699  and  _700
REMARK  286  A    between atoms: _699  and  _702
REMARK  287  A    between atoms: _702  and  _703
REMARK  288  A    between atoms: _708  and  _709
REMARK  289  A    between atoms: _711  and  _713
REMARK  290  A    between atoms: _713  and  _714
REMARK  291  A    between atoms: _713  and  _716
REMARK  292  A    between atoms: _716  and  _717
REMARK  293  A    between atoms: _720  and  _722
REMARK  294  A    between atoms: _722  and  _723
REMARK  295  A    between atoms: _722  and  _725
REMARK  296  A    between atoms: _725  and  _726
REMARK  297  A    between atoms: _726  and  _727
REMARK  298  A    between atoms: _727  and  _728
REMARK  299  A    between atoms: _728  and  _729
REMARK  300  A    between atoms: _733  and  _735
REMARK  301  A    between atoms: _735  and  _736
REMARK  302  A    between atoms: _735  and  _738
REMARK  303  A    between atoms: _738  and  _739
REMARK  304  A    between atoms: _744  and  _746
REMARK  305  A    between atoms: _746  and  _747
REMARK  306  A    between atoms: _746  and  _749
REMARK  307  A    between atoms: _749  and  _750
REMARK  308  A    between atoms: _760  and  _762
REMARK  309  A    between atoms: _762  and  _763
REMARK  310  A    between atoms: _762  and  _765
REMARK  311  A    between atoms: _765  and  _766
REMARK  312  A    between atoms: _766  and  _767
REMARK  313  A    between atoms: _770  and  _772
REMARK  314  A    between atoms: _772  and  _773
REMARK  315  A    between atoms: _772  and  _775
REMARK  316  A    between atoms: _775  and  _776
REMARK  317  A    between atoms: _779  and  _781
REMARK  318  A    between atoms: _781  and  _782
REMARK  319  A    between atoms: _781  and  _784
REMARK  320  A    between atoms: _784  and  _785
REMARK  321  A    between atoms: _790  and  _792
REMARK  322  A    between atoms: _792  and  _793
REMARK  323  A    between atoms: _792  and  _795
REMARK  324  A    between atoms: _795  and  _796
REMARK  325  A    between atoms: _802  and  _804
REMARK  326  A    between atoms: _804  and  _805
REMARK  327  A    between atoms: _804  and  _807
REMARK  328  A    between atoms: _807  and  _808
REMARK  329  A    between atoms: _810  and  _812
REMARK  330  A    between atoms: _812  and  _813
REMARK  331  A    between atoms: _815  and  _817
REMARK  332  A    between atoms: _817  and  _818
REMARK  333  A    between atoms: _817  and  _820
REMARK  334  A    between atoms: _820  and  _821
REMARK  335  A    between atoms: _826  and  _827
REMARK  336  A    between atoms: _829  and  _831
REMARK  337  A    between atoms: _831  and  _832
REMARK  338  A    between atoms: _831  and  _834
REMARK  339  A    between atoms: _834  and  _835
REMARK  340  A    between atoms: _840  and  _841
REMARK  341  A    between atoms: _843  and  _845
REMARK  342  A    between atoms: _845  and  _846
REMARK  343  A    between atoms: _845  and  _848
REMARK  344  A    between atoms: _848  and  _849
REMARK  345  A    between atoms: _853  and  ZN_1037
REMARK  346  A    between atoms: _854  and  _856
REMARK  347  A    between atoms: _856  and  _857
REMARK  348  A    between atoms: _856  and  _859
REMARK  349  A    between atoms: _859  and  _860
REMARK  350  A    between atoms: _860  and  _861
REMARK  351  A    between atoms: _864  and  _866
REMARK  352  A    between atoms: _866  and  _867
REMARK  353  A    between atoms: _866  and  _869
REMARK  354  A    between atoms: _869  and  _870
REMARK  355  A    between atoms: _870  and  _871
REMARK  356  A    between atoms: _871  and  _872
REMARK  357  A    between atoms: _881  and  _883
REMARK  358  A    between atoms: _883  and  _884
REMARK  359  A    between atoms: _883  and  _886
REMARK  360  A    between atoms: _886  and  _887
REMARK  361  A    between atoms: _887  and  _888
REMARK  362  A    between atoms: _888  and  _889
REMARK  363  A    between atoms: _889  and  _890
REMARK  364  A    between atoms: _894  and  _896
REMARK  365  A    between atoms: _896  and  _897
REMARK  366  A    between atoms: _896  and  _899
REMARK  367  A    between atoms: _899  and  _900
REMARK  368  A    between atoms: _905  and  _906
REMARK  369  A    between atoms: _908  and  _910
REMARK  370  A    between atoms: _910  and  _911
REMARK  371  A    between atoms: _910  and  _913
REMARK  372  A    between atoms: _913  and  _914
REMARK  373  A    between atoms: _914  and  _915
REMARK  374  A    between atoms: _915  and  _916
REMARK  375  A    between atoms: _916  and  _917
REMARK  376  A    between atoms: _921  and  _923
REMARK  377  A    between atoms: _923  and  _924
REMARK  378  A    between atoms: _923  and  _926
REMARK  379  A    between atoms: _926  and  _927
REMARK  380  A    between atoms: _932  and  _933
REMARK  381  A    between atoms: _935  and  _937
REMARK  382  A    between atoms: _937  and  _938
REMARK  383  A    between atoms: _937  and  _940
REMARK  384  A    between atoms: _940  and  _941
REMARK  385  A    between atoms: _946  and  _947
REMARK  386  A    between atoms: _949  and  _951
REMARK  387  A    between atoms: _951  and  _952
REMARK  388  A    between atoms: _956  and  _957
REMARK  389  A    between atoms: _962  and  _964
REMARK  390  A    between atoms: _964  and  _965
REMARK  391  A    between atoms: _964  and  _967
REMARK  392  A    between atoms: _967  and  _968
REMARK  393  A    between atoms: _970  and  _972
REMARK  394  A    between atoms: _972  and  _973
REMARK  395  A    between atoms: _972  and  _975
REMARK  396  A    between atoms: _975  and  _976
REMARK  397  A    between atoms: _981  and  _983
REMARK  398  A    between atoms: _983  and  _984
REMARK  399  A    between atoms: _983  and  _986
REMARK  400  A    between atoms: _986  and  _987
REMARK  401  A    between atoms: _987  and  _988
REMARK  402  A    between atoms: _988  and  _989
REMARK  403  A    between atoms: _989  and  _990
REMARK  404  A    between atoms: _994  and  _996
REMARK  405  A    between atoms: _996  and  _997
REMARK  406  A    between atoms: _996  and  _999
REMARK  407  A    between atoms: _999  and  _1000
REMARK  408  A    between atoms: _1005  and  _1006
REMARK  409  A    between atoms: _1008  and  _1010
REMARK  410  A    between atoms: _1010  and  _1011
REMARK  411  A    between atoms: _1014  and  _1016
REMARK  412  A    between atoms: _1016  and  _1017
REMARK  413  A    between atoms: _1019  and  _1021
REMARK  414  A    between atoms: _1021  and  _1022
REMARK  415  A    between atoms: _1021  and  _1024
REMARK  416  A    between atoms: _1024  and  _1025
REMARK  417  A    between atoms: _1025  and  _1026
REMARK  418  A    between atoms: _1029  and  _1031
REMARK  419  A    between atoms: _1031  and  _1032
REMARK  420  A    between atoms: _1031  and  _1034
REMARK  421  A    between atoms: _1034  and  _1035
REMARK                            x       y       z     vdW  Elec       q    Type
REMARK                         _______ _______ _______ _____ _____    ______ ____
ROOT
ATOM      1  O   HOH     1      21.506  42.238  46.290  0.00  0.00    +0.000 OA
ENDROOT
TORSDOF 0
REMARK  Name = ../refined-set-2016/2xef/2xef_pocket.pdb
REMARK  421 active torsions:
REMARK  status: ('A' for Active; 'I' for Inactive)
REMARK    1  A    between atoms: _1  and  _3
REMARK    2  A    between atoms: _3  and  _4
REMARK    3  A    between atoms: _7  and  _9
REMARK    4  A    between atoms: _9  and  _10
REMARK    5  A    between atoms: _9  and  _12
REMARK    6  A    between atoms: _12  and  _13
REMARK    7  A    between atoms: _19  and  _21
REMARK    8  A    between atoms: _21  and  _22
REMARK    9  A    between atoms: _21  and  _24
REMARK   10  A    between atoms: _24  and  _25
REMARK   11  A    between atoms: _30  and  _31
REMARK   12  A    between atoms: _33  and  _35
REMARK   13  A    between atoms: _35  and  _36
REMARK   14  A    between atoms: _38  and  _40
REMARK   15  A    between atoms: _40  and  _41
REMARK   16  A    between atoms: _40  and  _43
REMARK   17  A    between atoms: _43  and  _44
REMARK   18  A    between atoms: _44  and  _45
REMARK   19  A    between atoms: _45  and  _46
REMARK   20  A    between atoms: _46  and  _47
REMARK   21  A    between atoms: _51  and  _53
REMARK   22  A    between atoms: _53  and  _54
REMARK   23  A    between atoms: _53  and  _56
REMARK   24  A    between atoms: _59  and  _61
REMARK   25  A    between atoms: _61  and  _62
REMARK   26  A    between atoms: _61  and  _64
REMARK   27  A    between atoms: _64  and  _65
REMARK   28  A    between atoms: _71  and  _73
REMARK   29  A    between atoms: _73  and  _74
REMARK   30  A    between atoms: _73  and  _76
REMARK   31  A    between atoms: _76  and  _77
REMARK   32  A    between atoms: _77  and  _78
REMARK   33  A    between atoms: _78  and  _79
REMARK   34  A    between atoms: _88  and  _90
REMARK   35  A    between atoms: _90  and  _91
REMARK   36  A    between atoms: _93  and  _95
REMARK   37  A    between atoms: _95  and  _96
REMARK   38  A    between atoms: _95  and  _98
REMARK   39  A    between atoms: _98  and  _99
REMARK   40  A    between atoms: _99  and  _100
REMARK   41  A    between atoms: _100  and  _101
REMARK   42  A    between atoms: _101  and  _102
REMARK   43  A    between atoms: _106  and  _108
REMARK   44  A    between atoms: _108  and  _109
REMARK   45  A    between atoms: _108  and  _111
REMARK   46  A    between atoms: _111  and  _112
REMARK   47  A    between atoms: _117  and  _118
REMARK   48  A    between atoms: _120  and  _122
REMARK   49  A    between atoms: _122  and  _123
REMARK   50  A    between atoms: _122  and  _125
REMARK   51  A    between atoms: _125  and  _126
REMARK   52  A    between atoms: _126  and  _127
REMARK   53  A    between atoms: _132  and  _134
REMARK   54  A    between atoms: _134  and  _135
REMARK   55  A    between atoms: _134  and  _137
REMARK   56  A    between atoms: _137  and  _138
REMARK   57  A    between atoms: _138  and  _139
REMARK   58  A    between atoms: _139  and  _140
REMARK   59  A    between atoms: _149  and  _151
REMARK   60  A    between atoms: _151  and  _152
REMARK   61  A    between atoms: _154  and  _156
REMARK   62  A    between atoms: _156  and  _157
REMARK   63  A    between atoms: _156  and  _159
REMARK   64  A    between atoms: _159  and  _160
REMARK   65  A    between atoms: _165  and  _167
REMARK   66  A    between atoms: _167  and  _168
REMARK   67  A    between atoms: _167  and  _170
REMARK   68  A    between atoms: _170  and  _171
REMARK   69  A    between atoms: _174  and  _176
REMARK   70  A    between atoms: _176  and  _177
REMARK   71  A    between atoms: _176  and  _179
REMARK   72  A    between atoms: _179  and  _180
REMARK   73  A    between atoms: _183  and  _185
REMARK   74  A    between atoms: _185  and  _186
REMARK   75  A    between atoms: _185  and  _188
REMARK   76  A    between atoms: _188  and  _189
REMARK   77  A    between atoms: _194  and  _196
REMARK   78  A    between atoms: _196  and  _197
REMARK   79  A    between atoms: _196  and  _199
REMARK   80  A    between atoms: _199  and  _200
REMARK   81  A    between atoms: _203  and  _205
REMARK   82  A    between atoms: _205  and  _206
REMARK   83  A    between atoms: _205  and  _208
REMARK   84  A    between atoms: _208  and  _209
REMARK   85  A    between atoms: _214  and  _216
REMARK   86  A    between atoms: _216  and  _217
REMARK   87  A    between atoms: _219  and  _221
REMARK   88  A    between atoms: _221  and  _222
REMARK   89  A    between atoms: _224  and  _226
REMARK   90  A    between atoms: _226  and  _227
REMARK   91  A    between atoms: _226  and  _229
REMARK   92  A    between atoms: _229  and  _230
REMARK   93  A    between atoms: _234  and  ZN_1038
REMARK   94  A    between atoms: _235  and  _237
REMARK   95  A    between atoms: _237  and  _238
REMARK   96  A    between atoms: _237  and  _240
REMARK   97  A    between atoms: _240  and  _241
REMARK   98  A    between atoms: _244  and  _246
REMARK   99  A    between atoms: _246  and  _247
REMARK  100  A    between atoms: _246  and  _249
REMARK  101  A    between atoms: _249  and  _250
REMARK  102  A    between atoms: _260  and  _262
REMARK  103  A    between atoms: _262  and  _263
REMARK  104  A    between atoms: _262  and  _265
REMARK  105  A    between atoms: _265  and  _266
REMARK  106  A    between atoms: _269  and  _271
REMARK  107  A    between atoms: _271  and  _272
REMARK  108  A    between atoms: _271  and  _274
REMARK  109  A    between atoms: _274  and  _275
REMARK  110  A    between atoms: _279  and  _280
REMARK  111  A    between atoms: _285  and  _287
REMARK  112  A    between atoms: _287  and  _288
REMARK  113  A    between atoms: _291  and  _293
REMARK  114  A    between atoms: _293  and  _294
REMARK  115  A    between atoms: _293  and  _296
REMARK  116  A    between atoms: _296  and  _297
REMARK  117  A    between atoms: _297  and  _298
REMARK  118  A    between atoms: _301  and  _303
REMARK  119  A    between atoms: _303  and  _304
REMARK  120  A    between atoms: _303  and  _306
REMARK  121  A    between atoms: _306  and  _307
REMARK  122  A    between atoms: _307  and  _308
REMARK  123  A    between atoms: _308  and  _310
REMARK  124  A    between atoms: _310  and  ZN_1037
REMARK  125  A    between atoms: _311  and  _313
REMARK  126  A    between atoms: _313  and  _314
REMARK  127  A    between atoms: _313  and  _316
REMARK  128  A    between atoms: _316  and  _317
REMARK  129  A    between atoms: _323  and  _325
REMARK  130  A    between atoms: _325  and  _326
REMARK  131  A    between atoms: _328  and  _330
REMARK  132  A    between atoms: _330  and  _331
REMARK  133  A    between atoms: _330  and  _333
REMARK  134  A    between atoms: _333  and  _334
REMARK  135  A    between atoms: _337  and  _339
REMARK  136  A    between atoms: _339  and  _340
REMARK  137  A    between atoms: _339  and  _342
REMARK  138  A    between atoms: _342  and  _343
REMARK  139  A    between atoms: _346  and  _348
REMARK  140  A    between atoms: _348  and  _349
REMARK  141  A    between atoms: _348  and  _351
REMARK  142  A    between atoms: _351  and  _352
REMARK  143  A    between atoms: _357  and  _359
REMARK  144  A    between atoms: _359  and  _360
REMARK  145  A    between atoms: _359  and  _362
REMARK  146  A    between atoms: _362  and  _363
REMARK  147  A    between atoms: _363  and  _365
REMARK  148  A    between atoms: _365  and  ZN_1038
REMARK  149  A    between atoms: _366  and  _368
REMARK  150  A    between atoms: _368  and  _369
REMARK  151  A    between atoms: _368  and  _371
REMARK  152  A    between atoms: _371  and  _372
REMARK  153  A    between atoms: _374  and  _376
REMARK  154  A    between atoms: _376  and  _377
REMARK  155  A    between atoms: _376  and  _379
REMARK  156  A    between atoms: _379  and  _380
REMARK  157  A    between atoms: _382  and  _384
REMARK  158  A    between atoms: _384  and  _385
REMARK  159  A    between atoms: _384  and  _387
REMARK  160  A    between atoms: _387  and  _388
REMARK  161  A    between atoms: _391  and  _393
REMARK  162  A    between atoms: _393  and  _394
REMARK  163  A    between atoms: _393  and  _396
REMARK  164  A    between atoms: _396  and  _397
REMARK  165  A    between atoms: _397  and  _398
REMARK  166  A    between atoms: _401  and  _403
REMARK  167  A    between atoms: _403  and  _404
REMARK  168  A    between atoms: _403  and  _406
REMARK  169  A    between atoms: _406  and  _407
REMARK  170  A    between atoms: _412  and  _413
REMARK  171  A    between atoms: _415  and  _417
REMARK  172  A    between atoms: _417  and  _418
REMARK  173  A    between atoms: _417  and  _420
REMARK  174  A    between atoms: _420  and  _421
REMARK  175  A    between atoms: _424  and  _426
REMARK  176  A    between atoms: _426  and  _427
REMARK  177  A    between atoms: _426  and  _429
REMARK  178  A    between atoms: _429  and  _430
REMARK  179  A    between atoms: _433  and  _435
REMARK  180  A    between atoms: _435  and  _436
REMARK  181  A    between atoms: _435  and  _438
REMARK  182  A    between atoms: _438  and  _439
REMARK  183  A    between atoms: _439  and  _440
REMARK  184  A    between atoms: _440  and  _441
REMARK  185  A    between atoms: _450  and  _452
REMARK  186  A    between atoms: _452  and  _453
REMARK  187  A    between atoms: _452  and  _455
REMARK  188  A    between atoms: _458  and  _460
REMARK  189  A    between atoms: _460  and  _461
REMARK  190  A    between atoms: _460  and  _463
REMARK  191  A    between atoms: _463  and  _464
REMARK  192  A    between atoms: _467  and  _469
REMARK  193  A    between atoms: _469  and  _470
REMARK  194  A    between atoms: _469  and  _472
REMARK  195  A    between atoms: _474  and  _476
REMARK  196  A    between atoms: _476  and  _477
REMARK  197  A    between atoms: _476  and  _479
REMARK  198  A    between atoms: _479  and  _480
REMARK  199  A    between atoms: _490  and  _492
REMARK  200  A    between atoms: _492  and  _493
REMARK  201  A    between atoms: _492  and  _495
REMARK  202  A    between atoms: _495  and  _496
REMARK  203  A    between atoms: _496  and  _497
REMARK  204  A    between atoms: _497  and  _498
REMARK  205  A    between atoms: _498  and  _499
REMARK  206  A    between atoms: _503  and  _505
REMARK  207  A    between atoms: _505  and  _506
REMARK  208  A    between atoms: _505  and  _508
REMARK  209  A    between atoms: _508  and  _509
REMARK  210  A    between atoms: _512  and  _513
REMARK  211  A    between atoms: _519  and  _520
REMARK  212  A    between atoms: _525  and  _527
REMARK  213  A    between atoms: _527  and  _528
REMARK  214  A    between atoms: _527  and  _530
REMARK  215  A    between atoms: _530  and  _531
REMARK  216  A    between atoms: _531  and  _532
REMARK  217  A    between atoms: _535  and  _537
REMARK  218  A    between atoms: _537  and  _538
REMARK  219  A    between atoms: _537  and  _540
REMARK  220  A    between atoms: _540  and  _541
REMARK  221  A    between atoms: _541  and  _542
REMARK  222  A    between atoms: _542  and  _543
REMARK  223  A    between atoms: _552  and  _554
REMARK  224  A    between atoms: _554  and  _555
REMARK  225  A    between atoms: _554  and  _557
REMARK  226  A    between atoms: _557  and  _558
REMARK  227  A    between atoms: _561  and  _563
REMARK  228  A    between atoms: _563  and  _564
REMARK  229  A    between atoms: _563  and  _566
REMARK  230  A    between atoms: _566  and  _567
REMARK  231  A    between atoms: _569  and  _571
REMARK  232  A    between atoms: _571  and  _572
REMARK  233  A    between atoms: _571  and  _574
REMARK  234  A    between atoms: _574  and  _575
REMARK  235  A    between atoms: _575  and  _576
REMARK  236  A    between atoms: _576  and  _577
REMARK  237  A    between atoms: _577  and  _578
REMARK  238  A    between atoms: _582  and  _584
REMARK  239  A    between atoms: _584  and  _585
REMARK  240  A    between atoms: _584  and  _587
REMARK  241  A    between atoms: _587  and  _588
REMARK  242  A    between atoms: _591  and  _593
REMARK  243  A    between atoms: _593  and  _594
REMARK  244  A    between atoms: _596  and  _598
REMARK  245  A    between atoms: _598  and  _599
REMARK  246  A    between atoms: _598  and  _601
REMARK  247  A    between atoms: _601  and  _602
REMARK  248  A    between atoms: _604  and  _606
REMARK  249  A    between atoms: _606  and  _607
REMARK  250  A    between atoms: _609  and  _611
REMARK  251  A    between atoms: _611  and  _612
REMARK  252  A    between atoms: _611  and  _614
REMARK  253  A    between atoms: _614  and  _615
REMARK  254  A    between atoms: _620  and  _622
REMARK  255  A    between atoms: _622  and  _623
REMARK  256  A    between atoms: _622  and  _625
REMARK  257  A    between atoms: _625  and  _626
REMARK  258  A    between atoms: _629  and  _631
REMARK  259  A    between atoms: _631  and  _632
REMARK  260  A    between atoms: _631  and  _634
REMARK  261  A    between atoms: _634  and  _635
REMARK  262  A    between atoms: _641  and  _643
REMARK  263  A    between atoms: _643  and  _644
REMARK  264  A    between atoms: _643  and  _646
REMARK  265  A    between atoms: _646  and  _647
REMARK  266  A    between atoms: _647  and  _648
REMARK  267  A    between atoms: _651  and  _653
REMARK  268  A    between atoms: _653  and  _654
REMARK  269  A    between atoms: _653  and  _656
REMARK  270  A    between atoms: _656  and  _657
REMARK  271  A    between atoms: _657  and  _658
REMARK  272  A    between atoms: _663  and  _665
REMARK  273  A    between atoms: _665  and  _666
REMARK  274  A    between atoms: _665  and  _668
REMARK  275  A    between atoms: _668  and  _669
REMARK  276  A    between atoms: _669  and  _670
REMARK  277  A    between atoms: _670  and  _671
REMARK  278  A    between atoms: _680  and  _682
REMARK  279  A    between atoms: _682  and  _683
REMARK  280  A    between atoms: _682  and  _685
REMARK  281  A    between atoms: _685  and  _686
REMARK  282  A    between atoms: _686  and  _687
REMARK  283  A    between atoms: _687  and  _688
REMARK  284  A    between atoms: _697  and  _699
REMARK  285  A    between atoms: _699  and  _700
REMARK  286  A    between atoms: _699  and  _702
REMARK  287  A    between atoms: _702  and  _703
REMARK  288  A    between atoms: _708  and  _709
REMARK  289  A    between atoms: _711  and  _713
REMARK  290  A    between atoms: _713  and  _714
REMARK  291  A    between atoms: _713  and  _716
REMARK  292  A    between atoms: _716  and  _717
REMARK  293  A    between atoms: _720  and  _722
REMARK  294  A    between atoms: _722  and  _723
REMARK  295  A    between atoms: _722  and  _725
REMARK  296  A    between atoms: _725  and  _726
REMARK  297  A    between atoms: _726  and  _727
REMARK  298  A    between atoms: _727  and  _728
REMARK  299  A    between atoms: _728  and  _729
REMARK  300  A    between atoms: _733  and  _735
REMARK  301  A    between atoms: _735  and  _736
REMARK  302  A    between atoms: _735  and  _738
REMARK  303  A    between atoms: _738  and  _739
REMARK  304  A    between atoms: _744  and  _746
REMARK  305  A    between atoms: _746  and  _747
REMARK  306  A    between atoms: _746  and  _749
REMARK  307  A    between atoms: _749  and  _750
REMARK  308  A    between atoms: _760  and  _762
REMARK  309  A    between atoms: _762  and  _763
REMARK  310  A    between atoms: _762  and  _765
REMARK  311  A    between atoms: _765  and  _766
REMARK  312  A    between atoms: _766  and  _767
REMARK  313  A    between atoms: _770  and  _772
REMARK  314  A    between atoms: _772  and  _773
REMARK  315  A    between atoms: _772  and  _775
REMARK  316  A    between atoms: _775  and  _776
REMARK  317  A    between atoms: _779  and  _781
REMARK  318  A    between atoms: _781  and  _782
REMARK  319  A    between atoms: _781  and  _784
REMARK  320  A    between atoms: _784  and  _785
REMARK  321  A    between atoms: _790  and  _792
REMARK  322  A    between atoms: _792  and  _793
REMARK  323  A    between atoms: _792  and  _795
REMARK  324  A    between atoms: _795  and  _796
REMARK  325  A    between atoms: _802  and  _804
REMARK  326  A    between atoms: _804  and  _805
REMARK  327  A    between atoms: _804  and  _807
REMARK  328  A    between atoms: _807  and  _808
REMARK  329  A    between atoms: _810  and  _812
REMARK  330  A    between atoms: _812  and  _813
REMARK  331  A    between atoms: _815  and  _817
REMARK  332  A    between atoms: _817  and  _818
REMARK  333  A    between atoms: _817  and  _820
REMARK  334  A    between atoms: _820  and  _821
REMARK  335  A    between atoms: _826  and  _827
REMARK  336  A    between atoms: _829  and  _831
REMARK  337  A    between atoms: _831  and  _832
REMARK  338  A    between atoms: _831  and  _834
REMARK  339  A    between atoms: _834  and  _835
REMARK  340  A    between atoms: _840  and  _841
REMARK  341  A    between atoms: _843  and  _845
REMARK  342  A    between atoms: _845  and  _846
REMARK  343  A    between atoms: _845  and  _848
REMARK  344  A    between atoms: _848  and  _849
REMARK  345  A    between atoms: _853  and  ZN_1037
REMARK  346  A    between atoms: _854  and  _856
REMARK  347  A    between atoms: _856  and  _857
REMARK  348  A    between atoms: _856  and  _859
REMARK  349  A    between atoms: _859  and  _860
REMARK  350  A    between atoms: _860  and  _861
REMARK  351  A    between atoms: _864  and  _866
REMARK  352  A    between atoms: _866  and  _867
REMARK  353  A    between atoms: _866  and  _869
REMARK  354  A    between atoms: _869  and  _870
REMARK  355  A    between atoms: _870  and  _871
REMARK  356  A    between atoms: _871  and  _872
REMARK  357  A    between atoms: _881  and  _883
REMARK  358  A    between atoms: _883  and  _884
REMARK  359  A    between atoms: _883  and  _886
REMARK  360  A    between atoms: _886  and  _887
REMARK  361  A    between atoms: _887  and  _888
REMARK  362  A    between atoms: _888  and  _889
REMARK  363  A    between atoms: _889  and  _890
REMARK  364  A    between atoms: _894  and  _896
REMARK  365  A    between atoms: _896  and  _897
REMARK  366  A    between atoms: _896  and  _899
REMARK  367  A    between atoms: _899  and  _900
REMARK  368  A    between atoms: _905  and  _906
REMARK  369  A    between atoms: _908  and  _910
REMARK  370  A    between atoms: _910  and  _911
REMARK  371  A    between atoms: _910  and  _913
REMARK  372  A    between atoms: _913  and  _914
REMARK  373  A    between atoms: _914  and  _915
REMARK  374  A    between atoms: _915  and  _916
REMARK  375  A    between atoms: _916  and  _917
REMARK  376  A    between atoms: _921  and  _923
REMARK  377  A    between atoms: _923  and  _924
REMARK  378  A    between atoms: _923  and  _926
REMARK  379  A    between atoms: _926  and  _927
REMARK  380  A    between atoms: _932  and  _933
REMARK  381  A    between atoms: _935  and  _937
REMARK  382  A    between atoms: _937  and  _938
REMARK  383  A    between atoms: _937  and  _940
REMARK  384  A    between atoms: _940  and  _941
REMARK  385  A    between atoms: _946  and  _947
REMARK  386  A    between atoms: _949  and  _951
REMARK  387  A    between atoms: _951  and  _952
REMARK  388  A    between atoms: _956  and  _957
REMARK  389  A    between atoms: _962  and  _964
REMARK  390  A    between atoms: _964  and  _965
REMARK  391  A    between atoms: _964  and  _967
REMARK  392  A    between atoms: _967  and  _968
REMARK  393  A    between atoms: _970  and  _972
REMARK  394  A    between atoms: _972  and  _973
REMARK  395  A    between atoms: _972  and  _975
REMARK  396  A    between atoms: _975  and  _976
REMARK  397  A    between atoms: _981  and  _983
REMARK  398  A    between atoms: _983  and  _984
REMARK  399  A    between atoms: _983  and  _986
REMARK  400  A    between atoms: _986  and  _987
REMARK  401  A    between atoms: _987  and  _988
REMARK  402  A    between atoms: _988  and  _989
REMARK  403  A    between atoms: _989  and  _990
REMARK  404  A    between atoms: _994  and  _996
REMARK  405  A    between atoms: _996  and  _997
REMARK  406  A    between atoms: _996  and  _999
REMARK  407  A    between atoms: _999  and  _1000
REMARK  408  A    between atoms: _1005  and  _1006
REMARK  409  A    between atoms: _1008  and  _1010
REMARK  410  A    between atoms: _1010  and  _1011
REMARK  411  A    between atoms: _1014  and  _1016
REMARK  412  A    between atoms: _1016  and  _1017
REMARK  413  A    between atoms: _1019  and  _1021
REMARK  414  A    between atoms: _1021  and  _1022
REMARK  415  A    between atoms: _1021  and  _1024
REMARK  416  A    between atoms: _1024  and  _1025
REMARK  417  A    between atoms: _1025  and  _1026
REMARK  418  A    between atoms: _1029  and  _1031
REMARK  419  A    between atoms: _1031  and  _1032
REMARK  420  A    between atoms: _1031  and  _1034
REMARK  421  A    between atoms: _1034  and  _1035
REMARK                            x       y       z     vdW  Elec       q    Type
REMARK                         _______ _______ _______ _____ _____    ______ ____
ROOT
ATOM      1  O   HOH     1      24.649  43.976  45.381  0.00  0.00    +0.000 OA
ENDROOT
TORSDOF 0
REMARK  Name = ../refined-set-2016/2xef/2xef_pocket.pdb
REMARK  421 active torsions:
REMARK  status: ('A' for Active; 'I' for Inactive)
REMARK    1  A    between atoms: _1  and  _3
REMARK    2  A    between atoms: _3  and  _4
REMARK    3  A    between atoms: _7  and  _9
REMARK    4  A    between atoms: _9  and  _10
REMARK    5  A    between atoms: _9  and  _12
REMARK    6  A    between atoms: _12  and  _13
REMARK    7  A    between atoms: _19  and  _21
REMARK    8  A    between atoms: _21  and  _22
REMARK    9  A    between atoms: _21  and  _24
REMARK   10  A    between atoms: _24  and  _25
REMARK   11  A    between atoms: _30  and  _31
REMARK   12  A    between atoms: _33  and  _35
REMARK   13  A    between atoms: _35  and  _36
REMARK   14  A    between atoms: _38  and  _40
REMARK   15  A    between atoms: _40  and  _41
REMARK   16  A    between atoms: _40  and  _43
REMARK   17  A    between atoms: _43  and  _44
REMARK   18  A    between atoms: _44  and  _45
REMARK   19  A    between atoms: _45  and  _46
REMARK   20  A    between atoms: _46  and  _47
REMARK   21  A    between atoms: _51  and  _53
REMARK   22  A    between atoms: _53  and  _54
REMARK   23  A    between atoms: _53  and  _56
REMARK   24  A    between atoms: _59  and  _61
REMARK   25  A    between atoms: _61  and  _62
REMARK   26  A    between atoms: _61  and  _64
REMARK   27  A    between atoms: _64  and  _65
REMARK   28  A    between atoms: _71  and  _73
REMARK   29  A    between atoms: _73  and  _74
REMARK   30  A    between atoms: _73  and  _76
REMARK   31  A    between atoms: _76  and  _77
REMARK   32  A    between atoms: _77  and  _78
REMARK   33  A    between atoms: _78  and  _79
REMARK   34  A    between atoms: _88  and  _90
REMARK   35  A    between atoms: _90  and  _91
REMARK   36  A    between atoms: _93  and  _95
REMARK   37  A    between atoms: _95  and  _96
REMARK   38  A    between atoms: _95  and  _98
REMARK   39  A    between atoms: _98  and  _99
REMARK   40  A    between atoms: _99  and  _100
REMARK   41  A    between atoms: _100  and  _101
REMARK   42  A    between atoms: _101  and  _102
REMARK   43  A    between atoms: _106  and  _108
REMARK   44  A    between atoms: _108  and  _109
REMARK   45  A    between atoms: _108  and  _111
REMARK   46  A    between atoms: _111  and  _112
REMARK   47  A    between atoms: _117  and  _118
REMARK   48  A    between atoms: _120  and  _122
REMARK   49  A    between atoms: _122  and  _123
REMARK   50  A    between atoms: _122  and  _125
REMARK   51  A    between atoms: _125  and  _126
REMARK   52  A    between atoms: _126  and  _127
REMARK   53  A    between atoms: _132  and  _134
REMARK   54  A    between atoms: _134  and  _135
REMARK   55  A    between atoms: _134  and  _137
REMARK   56  A    between atoms: _137  and  _138
REMARK   57  A    between atoms: _138  and  _139
REMARK   58  A    between atoms: _139  and  _140
REMARK   59  A    between atoms: _149  and  _151
REMARK   60  A    between atoms: _151  and  _152
REMARK   61  A    between atoms: _154  and  _156
REMARK   62  A    between atoms: _156  and  _157
REMARK   63  A    between atoms: _156  and  _159
REMARK   64  A    between atoms: _159  and  _160
REMARK   65  A    between atoms: _165  and  _167
REMARK   66  A    between atoms: _167  and  _168
REMARK   67  A    between atoms: _167  and  _170
REMARK   68  A    between atoms: _170  and  _171
REMARK   69  A    between atoms: _174  and  _176
REMARK   70  A    between atoms: _176  and  _177
REMARK   71  A    between atoms: _176  and  _179
REMARK   72  A    between atoms: _179  and  _180
REMARK   73  A    between atoms: _183  and  _185
REMARK   74  A    between atoms: _185  and  _186
REMARK   75  A    between atoms: _185  and  _188
REMARK   76  A    between atoms: _188  and  _189
REMARK   77  A    between atoms: _194  and  _196
REMARK   78  A    between atoms: _196  and  _197
REMARK   79  A    between atoms: _196  and  _199
REMARK   80  A    between atoms: _199  and  _200
REMARK   81  A    between atoms: _203  and  _205
REMARK   82  A    between atoms: _205  and  _206
REMARK   83  A    between atoms: _205  and  _208
REMARK   84  A    between atoms: _208  and  _209
REMARK   85  A    between atoms: _214  and  _216
REMARK   86  A    between atoms: _216  and  _217
REMARK   87  A    between atoms: _219  and  _221
REMARK   88  A    between atoms: _221  and  _222
REMARK   89  A    between atoms: _224  and  _226
REMARK   90  A    between atoms: _226  and  _227
REMARK   91  A    between atoms: _226  and  _229
REMARK   92  A    between atoms: _229  and  _230
REMARK   93  A    between atoms: _234  and  ZN_1038
REMARK   94  A    between atoms: _235  and  _237
REMARK   95  A    between atoms: _237  and  _238
REMARK   96  A    between atoms: _237  and  _240
REMARK   97  A    between atoms: _240  and  _241
REMARK   98  A    between atoms: _244  and  _246
REMARK   99  A    between atoms: _246  and  _247
REMARK  100  A    between atoms: _246  and  _249
REMARK  101  A    between atoms: _249  and  _250
REMARK  102  A    between atoms: _260  and  _262
REMARK  103  A    between atoms: _262  and  _263
REMARK  104  A    between atoms: _262  and  _265
REMARK  105  A    between atoms: _265  and  _266
REMARK  106  A    between atoms: _269  and  _271
REMARK  107  A    between atoms: _271  and  _272
REMARK  108  A    between atoms: _271  and  _274
REMARK  109  A    between atoms: _274  and  _275
REMARK  110  A    between atoms: _279  and  _280
REMARK  111  A    between atoms: _285  and  _287
REMARK  112  A    between atoms: _287  and  _288
REMARK  113  A    between atoms: _291  and  _293
REMARK  114  A    between atoms: _293  and  _294
REMARK  115  A    between atoms: _293  and  _296
REMARK  116  A    between atoms: _296  and  _297
REMARK  117  A    between atoms: _297  and  _298
REMARK  118  A    between atoms: _301  and  _303
REMARK  119  A    between atoms: _303  and  _304
REMARK  120  A    between atoms: _303  and  _306
REMARK  121  A    between atoms: _306  and  _307
REMARK  122  A    between atoms: _307  and  _308
REMARK  123  A    between atoms: _308  and  _310
REMARK  124  A    between atoms: _310  and  ZN_1037
REMARK  125  A    between atoms: _311  and  _313
REMARK  126  A    between atoms: _313  and  _314
REMARK  127  A    between atoms: _313  and  _316
REMARK  128  A    between atoms: _316  and  _317
REMARK  129  A    between atoms: _323  and  _325
REMARK  130  A    between atoms: _325  and  _326
REMARK  131  A    between atoms: _328  and  _330
REMARK  132  A    between atoms: _330  and  _331
REMARK  133  A    between atoms: _330  and  _333
REMARK  134  A    between atoms: _333  and  _334
REMARK  135  A    between atoms: _337  and  _339
REMARK  136  A    between atoms: _339  and  _340
REMARK  137  A    between atoms: _339  and  _342
REMARK  138  A    between atoms: _342  and  _343
REMARK  139  A    between atoms: _346  and  _348
REMARK  140  A    between atoms: _348  and  _349
REMARK  141  A    between atoms: _348  and  _351
REMARK  142  A    between atoms: _351  and  _352
REMARK  143  A    between atoms: _357  and  _359
REMARK  144  A    between atoms: _359  and  _360
REMARK  145  A    between atoms: _359  and  _362
REMARK  146  A    between atoms: _362  and  _363
REMARK  147  A    between atoms: _363  and  _365
REMARK  148  A    between atoms: _365  and  ZN_1038
REMARK  149  A    between atoms: _366  and  _368
REMARK  150  A    between atoms: _368  and  _369
REMARK  151  A    between atoms: _368  and  _371
REMARK  152  A    between atoms: _371  and  _372
REMARK  153  A    between atoms: _374  and  _376
REMARK  154  A    between atoms: _376  and  _377
REMARK  155  A    between atoms: _376  and  _379
REMARK  156  A    between atoms: _379  and  _380
REMARK  157  A    between atoms: _382  and  _384
REMARK  158  A    between atoms: _384  and  _385
REMARK  159  A    between atoms: _384  and  _387
REMARK  160  A    between atoms: _387  and  _388
REMARK  161  A    between atoms: _391  and  _393
REMARK  162  A    between atoms: _393  and  _394
REMARK  163  A    between atoms: _393  and  _396
REMARK  164  A    between atoms: _396  and  _397
REMARK  165  A    between atoms: _397  and  _398
REMARK  166  A    between atoms: _401  and  _403
REMARK  167  A    between atoms: _403  and  _404
REMARK  168  A    between atoms: _403  and  _406
REMARK  169  A    between atoms: _406  and  _407
REMARK  170  A    between atoms: _412  and  _413
REMARK  171  A    between atoms: _415  and  _417
REMARK  172  A    between atoms: _417  and  _418
REMARK  173  A    between atoms: _417  and  _420
REMARK  174  A    between atoms: _420  and  _421
REMARK  175  A    between atoms: _424  and  _426
REMARK  176  A    between atoms: _426  and  _427
REMARK  177  A    between atoms: _426  and  _429
REMARK  178  A    between atoms: _429  and  _430
REMARK  179  A    between atoms: _433  and  _435
REMARK  180  A    between atoms: _435  and  _436
REMARK  181  A    between atoms: _435  and  _438
REMARK  182  A    between atoms: _438  and  _439
REMARK  183  A    between atoms: _439  and  _440
REMARK  184  A    between atoms: _440  and  _441
REMARK  185  A    between atoms: _450  and  _452
REMARK  186  A    between atoms: _452  and  _453
REMARK  187  A    between atoms: _452  and  _455
REMARK  188  A    between atoms: _458  and  _460
REMARK  189  A    between atoms: _460  and  _461
REMARK  190  A    between atoms: _460  and  _463
REMARK  191  A    between atoms: _463  and  _464
REMARK  192  A    between atoms: _467  and  _469
REMARK  193  A    between atoms: _469  and  _470
REMARK  194  A    between atoms: _469  and  _472
REMARK  195  A    between atoms: _474  and  _476
REMARK  196  A    between atoms: _476  and  _477
REMARK  197  A    between atoms: _476  and  _479
REMARK  198  A    between atoms: _479  and  _480
REMARK  199  A    between atoms: _490  and  _492
REMARK  200  A    between atoms: _492  and  _493
REMARK  201  A    between atoms: _492  and  _495
REMARK  202  A    between atoms: _495  and  _496
REMARK  203  A    between atoms: _496  and  _497
REMARK  204  A    between atoms: _497  and  _498
REMARK  205  A    between atoms: _498  and  _499
REMARK  206  A    between atoms: _503  and  _505
REMARK  207  A    between atoms: _505  and  _506
REMARK  208  A    between atoms: _505  and  _508
REMARK  209  A    between atoms: _508  and  _509
REMARK  210  A    between atoms: _512  and  _513
REMARK  211  A    between atoms: _519  and  _520
REMARK  212  A    between atoms: _525  and  _527
REMARK  213  A    between atoms: _527  and  _528
REMARK  214  A    between atoms: _527  and  _530
REMARK  215  A    between atoms: _530  and  _531
REMARK  216  A    between atoms: _531  and  _532
REMARK  217  A    between atoms: _535  and  _537
REMARK  218  A    between atoms: _537  and  _538
REMARK  219  A    between atoms: _537  and  _540
REMARK  220  A    between atoms: _540  and  _541
REMARK  221  A    between atoms: _541  and  _542
REMARK  222  A    between atoms: _542  and  _543
REMARK  223  A    between atoms: _552  and  _554
REMARK  224  A    between atoms: _554  and  _555
REMARK  225  A    between atoms: _554  and  _557
REMARK  226  A    between atoms: _557  and  _558
REMARK  227  A    between atoms: _561  and  _563
REMARK  228  A    between atoms: _563  and  _564
REMARK  229  A    between atoms: _563  and  _566
REMARK  230  A    between atoms: _566  and  _567
REMARK  231  A    between atoms: _569  and  _571
REMARK  232  A    between atoms: _571  and  _572
REMARK  233  A    between atoms: _571  and  _574
REMARK  234  A    between atoms: _574  and  _575
REMARK  235  A    between atoms: _575  and  _576
REMARK  236  A    between atoms: _576  and  _577
REMARK  237  A    between atoms: _577  and  _578
REMARK  238  A    between atoms: _582  and  _584
REMARK  239  A    between atoms: _584  and  _585
REMARK  240  A    between atoms: _584  and  _587
REMARK  241  A    between atoms: _587  and  _588
REMARK  242  A    between atoms: _591  and  _593
REMARK  243  A    between atoms: _593  and  _594
REMARK  244  A    between atoms: _596  and  _598
REMARK  245  A    between atoms: _598  and  _599
REMARK  246  A    between atoms: _598  and  _601
REMARK  247  A    between atoms: _601  and  _602
REMARK  248  A    between atoms: _604  and  _606
REMARK  249  A    between atoms: _606  and  _607
REMARK  250  A    between atoms: _609  and  _611
REMARK  251  A    between atoms: _611  and  _612
REMARK  252  A    between atoms: _611  and  _614
REMARK  253  A    between atoms: _614  and  _615
REMARK  254  A    between atoms: _620  and  _622
REMARK  255  A    between atoms: _622  and  _623
REMARK  256  A    between atoms: _622  and  _625
REMARK  257  A    between atoms: _625  and  _626
REMARK  258  A    between atoms: _629  and  _631
REMARK  259  A    between atoms: _631  and  _632
REMARK  260  A    between atoms: _631  and  _634
REMARK  261  A    between atoms: _634  and  _635
REMARK  262  A    between atoms: _641  and  _643
REMARK  263  A    between atoms: _643  and  _644
REMARK  264  A    between atoms: _643  and  _646
REMARK  265  A    between atoms: _646  and  _647
REMARK  266  A    between atoms: _647  and  _648
REMARK  267  A    between atoms: _651  and  _653
REMARK  268  A    between atoms: _653  and  _654
REMARK  269  A    between atoms: _653  and  _656
REMARK  270  A    between atoms: _656  and  _657
REMARK  271  A    between atoms: _657  and  _658
REMARK  272  A    between atoms: _663  and  _665
REMARK  273  A    between atoms: _665  and  _666
REMARK  274  A    between atoms: _665  and  _668
REMARK  275  A    between atoms: _668  and  _669
REMARK  276  A    between atoms: _669  and  _670
REMARK  277  A    between atoms: _670  and  _671
REMARK  278  A    between atoms: _680  and  _682
REMARK  279  A    between atoms: _682  and  _683
REMARK  280  A    between atoms: _682  and  _685
REMARK  281  A    between atoms: _685  and  _686
REMARK  282  A    between atoms: _686  and  _687
REMARK  283  A    between atoms: _687  and  _688
REMARK  284  A    between atoms: _697  and  _699
REMARK  285  A    between atoms: _699  and  _700
REMARK  286  A    between atoms: _699  and  _702
REMARK  287  A    between atoms: _702  and  _703
REMARK  288  A    between atoms: _708  and  _709
REMARK  289  A    between atoms: _711  and  _713
REMARK  290  A    between atoms: _713  and  _714
REMARK  291  A    between atoms: _713  and  _716
REMARK  292  A    between atoms: _716  and  _717
REMARK  293  A    between atoms: _720  and  _722
REMARK  294  A    between atoms: _722  and  _723
REMARK  295  A    between atoms: _722  and  _725
REMARK  296  A    between atoms: _725  and  _726
REMARK  297  A    between atoms: _726  and  _727
REMARK  298  A    between atoms: _727  and  _728
REMARK  299  A    between atoms: _728  and  _729
REMARK  300  A    between atoms: _733  and  _735
REMARK  301  A    between atoms: _735  and  _736
REMARK  302  A    between atoms: _735  and  _738
REMARK  303  A    between atoms: _738  and  _739
REMARK  304  A    between atoms: _744  and  _746
REMARK  305  A    between atoms: _746  and  _747
REMARK  306  A    between atoms: _746  and  _749
REMARK  307  A    between atoms: _749  and  _750
REMARK  308  A    between atoms: _760  and  _762
REMARK  309  A    between atoms: _762  and  _763
REMARK  310  A    between atoms: _762  and  _765
REMARK  311  A    between atoms: _765  and  _766
REMARK  312  A    between atoms: _766  and  _767
REMARK  313  A    between atoms: _770  and  _772
REMARK  314  A    between atoms: _772  and  _773
REMARK  315  A    between atoms: _772  and  _775
REMARK  316  A    between atoms: _775  and  _776
REMARK  317  A    between atoms: _779  and  _781
REMARK  318  A    between atoms: _781  and  _782
REMARK  319  A    between atoms: _781  and  _784
REMARK  320  A    between atoms: _784  and  _785
REMARK  321  A    between atoms: _790  and  _792
REMARK  322  A    between atoms: _792  and  _793
REMARK  323  A    between atoms: _792  and  _795
REMARK  324  A    between atoms: _795  and  _796
REMARK  325  A    between atoms: _802  and  _804
REMARK  326  A    between atoms: _804  and  _805
REMARK  327  A    between atoms: _804  and  _807
REMARK  328  A    between atoms: _807  and  _808
REMARK  329  A    between atoms: _810  and  _812
REMARK  330  A    between atoms: _812  and  _813
REMARK  331  A    between atoms: _815  and  _817
REMARK  332  A    between atoms: _817  and  _818
REMARK  333  A    between atoms: _817  and  _820
REMARK  334  A    between atoms: _820  and  _821
REMARK  335  A    between atoms: _826  and  _827
REMARK  336  A    between atoms: _829  and  _831
REMARK  337  A    between atoms: _831  and  _832
REMARK  338  A    between atoms: _831  and  _834
REMARK  339  A    between atoms: _834  and  _835
REMARK  340  A    between atoms: _840  and  _841
REMARK  341  A    between atoms: _843  and  _845
REMARK  342  A    between atoms: _845  and  _846
REMARK  343  A    between atoms: _845  and  _848
REMARK  344  A    between atoms: _848  and  _849
REMARK  345  A    between atoms: _853  and  ZN_1037
REMARK  346  A    between atoms: _854  and  _856
REMARK  347  A    between atoms: _856  and  _857
REMARK  348  A    between atoms: _856  and  _859
REMARK  349  A    between atoms: _859  and  _860
REMARK  350  A    between atoms: _860  and  _861
REMARK  351  A    between atoms: _864  and  _866
REMARK  352  A    between atoms: _866  and  _867
REMARK  353  A    between atoms: _866  and  _869
REMARK  354  A    between atoms: _869  and  _870
REMARK  355  A    between atoms: _870  and  _871
REMARK  356  A    between atoms: _871  and  _872
REMARK  357  A    between atoms: _881  and  _883
REMARK  358  A    between atoms: _883  and  _884
REMARK  359  A    between atoms: _883  and  _886
REMARK  360  A    between atoms: _886  and  _887
REMARK  361  A    between atoms: _887  and  _888
REMARK  362  A    between atoms: _888  and  _889
REMARK  363  A    between atoms: _889  and  _890
REMARK  364  A    between atoms: _894  and  _896
REMARK  365  A    between atoms: _896  and  _897
REMARK  366  A    between atoms: _896  and  _899
REMARK  367  A    between atoms: _899  and  _900
REMARK  368  A    between atoms: _905  and  _906
REMARK  369  A    between atoms: _908  and  _910
REMARK  370  A    between atoms: _910  and  _911
REMARK  371  A    between atoms: _910  and  _913
REMARK  372  A    between atoms: _913  and  _914
REMARK  373  A    between atoms: _914  and  _915
REMARK  374  A    between atoms: _915  and  _916
REMARK  375  A    between atoms: _916  and  _917
REMARK  376  A    between atoms: _921  and  _923
REMARK  377  A    between atoms: _923  and  _924
REMARK  378  A    between atoms: _923  and  _926
REMARK  379  A    between atoms: _926  and  _927
REMARK  380  A    between atoms: _932  and  _933
REMARK  381  A    between atoms: _935  and  _937
REMARK  382  A    between atoms: _937  and  _938
REMARK  383  A    between atoms: _937  and  _940
REMARK  384  A    between atoms: _940  and  _941
REMARK  385  A    between atoms: _946  and  _947
REMARK  386  A    between atoms: _949  and  _951
REMARK  387  A    between atoms: _951  and  _952
REMARK  388  A    between atoms: _956  and  _957
REMARK  389  A    between atoms: _962  and  _964
REMARK  390  A    between atoms: _964  and  _965
REMARK  391  A    between atoms: _964  and  _967
REMARK  392  A    between atoms: _967  and  _968
REMARK  393  A    between atoms: _970  and  _972
REMARK  394  A    between atoms: _972  and  _973
REMARK  395  A    between atoms: _972  and  _975
REMARK  396  A    between atoms: _975  and  _976
REMARK  397  A    between atoms: _981  and  _983
REMARK  398  A    between atoms: _983  and  _984
REMARK  399  A    between atoms: _983  and  _986
REMARK  400  A    between atoms: _986  and  _987
REMARK  401  A    between atoms: _987  and  _988
REMARK  402  A    between atoms: _988  and  _989
REMARK  403  A    between atoms: _989  and  _990
REMARK  404  A    between atoms: _994  and  _996
REMARK  405  A    between atoms: _996  and  _997
REMARK  406  A    between atoms: _996  and  _999
REMARK  407  A    between atoms: _999  and  _1000
REMARK  408  A    between atoms: _1005  and  _1006
REMARK  409  A    between atoms: _1008  and  _1010
REMARK  410  A    between atoms: _1010  and  _1011
REMARK  411  A    between atoms: _1014  and  _1016
REMARK  412  A    between atoms: _1016  and  _1017
REMARK  413  A    between atoms: _1019  and  _1021
REMARK  414  A    between atoms: _1021  and  _1022
REMARK  415  A    between atoms: _1021  and  _1024
REMARK  416  A    between atoms: _1024  and  _1025
REMARK  417  A    between atoms: _1025  and  _1026
REMARK  418  A    between atoms: _1029  and  _1031
REMARK  419  A    between atoms: _1031  and  _1032
REMARK  420  A    between atoms: _1031  and  _1034
REMARK  421  A    between atoms: _1034  and  _1035
REMARK                            x       y       z     vdW  Elec       q    Type
REMARK                         _______ _______ _______ _____ _____    ______ ____
ROOT
ATOM      1  O   HOH     1      28.972  47.179  45.407  0.00  0.00    +0.000 OA
ENDROOT
TORSDOF 0
REMARK  Name = ../refined-set-2016/2xef/2xef_pocket.pdb
REMARK  421 active torsions:
REMARK  status: ('A' for Active; 'I' for Inactive)
REMARK    1  A    between atoms: _1  and  _3
REMARK    2  A    between atoms: _3  and  _4
REMARK    3  A    between atoms: _7  and  _9
REMARK    4  A    between atoms: _9  and  _10
REMARK    5  A    between atoms: _9  and  _12
REMARK    6  A    between atoms: _12  and  _13
REMARK    7  A    between atoms: _19  and  _21
REMARK    8  A    between atoms: _21  and  _22
REMARK    9  A    between atoms: _21  and  _24
REMARK   10  A    between atoms: _24  and  _25
REMARK   11  A    between atoms: _30  and  _31
REMARK   12  A    between atoms: _33  and  _35
REMARK   13  A    between atoms: _35  and  _36
REMARK   14  A    between atoms: _38  and  _40
REMARK   15  A    between atoms: _40  and  _41
REMARK   16  A    between atoms: _40  and  _43
REMARK   17  A    between atoms: _43  and  _44
REMARK   18  A    between atoms: _44  and  _45
REMARK   19  A    between atoms: _45  and  _46
REMARK   20  A    between atoms: _46  and  _47
REMARK   21  A    between atoms: _51  and  _53
REMARK   22  A    between atoms: _53  and  _54
REMARK   23  A    between atoms: _53  and  _56
REMARK   24  A    between atoms: _59  and  _61
REMARK   25  A    between atoms: _61  and  _62
REMARK   26  A    between atoms: _61  and  _64
REMARK   27  A    between atoms: _64  and  _65
REMARK   28  A    between atoms: _71  and  _73
REMARK   29  A    between atoms: _73  and  _74
REMARK   30  A    between atoms: _73  and  _76
REMARK   31  A    between atoms: _76  and  _77
REMARK   32  A    between atoms: _77  and  _78
REMARK   33  A    between atoms: _78  and  _79
REMARK   34  A    between atoms: _88  and  _90
REMARK   35  A    between atoms: _90  and  _91
REMARK   36  A    between atoms: _93  and  _95
REMARK   37  A    between atoms: _95  and  _96
REMARK   38  A    between atoms: _95  and  _98
REMARK   39  A    between atoms: _98  and  _99
REMARK   40  A    between atoms: _99  and  _100
REMARK   41  A    between atoms: _100  and  _101
REMARK   42  A    between atoms: _101  and  _102
REMARK   43  A    between atoms: _106  and  _108
REMARK   44  A    between atoms: _108  and  _109
REMARK   45  A    between atoms: _108  and  _111
REMARK   46  A    between atoms: _111  and  _112
REMARK   47  A    between atoms: _117  and  _118
REMARK   48  A    between atoms: _120  and  _122
REMARK   49  A    between atoms: _122  and  _123
REMARK   50  A    between atoms: _122  and  _125
REMARK   51  A    between atoms: _125  and  _126
REMARK   52  A    between atoms: _126  and  _127
REMARK   53  A    between atoms: _132  and  _134
REMARK   54  A    between atoms: _134  and  _135
REMARK   55  A    between atoms: _134  and  _137
REMARK   56  A    between atoms: _137  and  _138
REMARK   57  A    between atoms: _138  and  _139
REMARK   58  A    between atoms: _139  and  _140
REMARK   59  A    between atoms: _149  and  _151
REMARK   60  A    between atoms: _151  and  _152
REMARK   61  A    between atoms: _154  and  _156
REMARK   62  A    between atoms: _156  and  _157
REMARK   63  A    between atoms: _156  and  _159
REMARK   64  A    between atoms: _159  and  _160
REMARK   65  A    between atoms: _165  and  _167
REMARK   66  A    between atoms: _167  and  _168
REMARK   67  A    between atoms: _167  and  _170
REMARK   68  A    between atoms: _170  and  _171
REMARK   69  A    between atoms: _174  and  _176
REMARK   70  A    between atoms: _176  and  _177
REMARK   71  A    between atoms: _176  and  _179
REMARK   72  A    between atoms: _179  and  _180
REMARK   73  A    between atoms: _183  and  _185
REMARK   74  A    between atoms: _185  and  _186
REMARK   75  A    between atoms: _185  and  _188
REMARK   76  A    between atoms: _188  and  _189
REMARK   77  A    between atoms: _194  and  _196
REMARK   78  A    between atoms: _196  and  _197
REMARK   79  A    between atoms: _196  and  _199
REMARK   80  A    between atoms: _199  and  _200
REMARK   81  A    between atoms: _203  and  _205
REMARK   82  A    between atoms: _205  and  _206
REMARK   83  A    between atoms: _205  and  _208
REMARK   84  A    between atoms: _208  and  _209
REMARK   85  A    between atoms: _214  and  _216
REMARK   86  A    between atoms: _216  and  _217
REMARK   87  A    between atoms: _219  and  _221
REMARK   88  A    between atoms: _221  and  _222
REMARK   89  A    between atoms: _224  and  _226
REMARK   90  A    between atoms: _226  and  _227
REMARK   91  A    between atoms: _226  and  _229
REMARK   92  A    between atoms: _229  and  _230
REMARK   93  A    between atoms: _234  and  ZN_1038
REMARK   94  A    between atoms: _235  and  _237
REMARK   95  A    between atoms: _237  and  _238
REMARK   96  A    between atoms: _237  and  _240
REMARK   97  A    between atoms: _240  and  _241
REMARK   98  A    between atoms: _244  and  _246
REMARK   99  A    between atoms: _246  and  _247
REMARK  100  A    between atoms: _246  and  _249
REMARK  101  A    between atoms: _249  and  _250
REMARK  102  A    between atoms: _260  and  _262
REMARK  103  A    between atoms: _262  and  _263
REMARK  104  A    between atoms: _262  and  _265
REMARK  105  A    between atoms: _265  and  _266
REMARK  106  A    between atoms: _269  and  _271
REMARK  107  A    between atoms: _271  and  _272
REMARK  108  A    between atoms: _271  and  _274
REMARK  109  A    between atoms: _274  and  _275
REMARK  110  A    between atoms: _279  and  _280
REMARK  111  A    between atoms: _285  and  _287
REMARK  112  A    between atoms: _287  and  _288
REMARK  113  A    between atoms: _291  and  _293
REMARK  114  A    between atoms: _293  and  _294
REMARK  115  A    between atoms: _293  and  _296
REMARK  116  A    between atoms: _296  and  _297
REMARK  117  A    between atoms: _297  and  _298
REMARK  118  A    between atoms: _301  and  _303
REMARK  119  A    between atoms: _303  and  _304
REMARK  120  A    between atoms: _303  and  _306
REMARK  121  A    between atoms: _306  and  _307
REMARK  122  A    between atoms: _307  and  _308
REMARK  123  A    between atoms: _308  and  _310
REMARK  124  A    between atoms: _310  and  ZN_1037
REMARK  125  A    between atoms: _311  and  _313
REMARK  126  A    between atoms: _313  and  _314
REMARK  127  A    between atoms: _313  and  _316
REMARK  128  A    between atoms: _316  and  _317
REMARK  129  A    between atoms: _323  and  _325
REMARK  130  A    between atoms: _325  and  _326
REMARK  131  A    between atoms: _328  and  _330
REMARK  132  A    between atoms: _330  and  _331
REMARK  133  A    between atoms: _330  and  _333
REMARK  134  A    between atoms: _333  and  _334
REMARK  135  A    between atoms: _337  and  _339
REMARK  136  A    between atoms: _339  and  _340
REMARK  137  A    between atoms: _339  and  _342
REMARK  138  A    between atoms: _342  and  _343
REMARK  139  A    between atoms: _346  and  _348
REMARK  140  A    between atoms: _348  and  _349
REMARK  141  A    between atoms: _348  and  _351
REMARK  142  A    between atoms: _351  and  _352
REMARK  143  A    between atoms: _357  and  _359
REMARK  144  A    between atoms: _359  and  _360
REMARK  145  A    between atoms: _359  and  _362
REMARK  146  A    between atoms: _362  and  _363
REMARK  147  A    between atoms: _363  and  _365
REMARK  148  A    between atoms: _365  and  ZN_1038
REMARK  149  A    between atoms: _366  and  _368
REMARK  150  A    between atoms: _368  and  _369
REMARK  151  A    between atoms: _368  and  _371
REMARK  152  A    between atoms: _371  and  _372
REMARK  153  A    between atoms: _374  and  _376
REMARK  154  A    between atoms: _376  and  _377
REMARK  155  A    between atoms: _376  and  _379
REMARK  156  A    between atoms: _379  and  _380
REMARK  157  A    between atoms: _382  and  _384
REMARK  158  A    between atoms: _384  and  _385
REMARK  159  A    between atoms: _384  and  _387
REMARK  160  A    between atoms: _387  and  _388
REMARK  161  A    between atoms: _391  and  _393
REMARK  162  A    between atoms: _393  and  _394
REMARK  163  A    between atoms: _393  and  _396
REMARK  164  A    between atoms: _396  and  _397
REMARK  165  A    between atoms: _397  and  _398
REMARK  166  A    between atoms: _401  and  _403
REMARK  167  A    between atoms: _403  and  _404
REMARK  168  A    between atoms: _403  and  _406
REMARK  169  A    between atoms: _406  and  _407
REMARK  170  A    between atoms: _412  and  _413
REMARK  171  A    between atoms: _415  and  _417
REMARK  172  A    between atoms: _417  and  _418
REMARK  173  A    between atoms: _417  and  _420
REMARK  174  A    between atoms: _420  and  _421
REMARK  175  A    between atoms: _424  and  _426
REMARK  176  A    between atoms: _426  and  _427
REMARK  177  A    between atoms: _426  and  _429
REMARK  178  A    between atoms: _429  and  _430
REMARK  179  A    between atoms: _433  and  _435
REMARK  180  A    between atoms: _435  and  _436
REMARK  181  A    between atoms: _435  and  _438
REMARK  182  A    between atoms: _438  and  _439
REMARK  183  A    between atoms: _439  and  _440
REMARK  184  A    between atoms: _440  and  _441
REMARK  185  A    between atoms: _450  and  _452
REMARK  186  A    between atoms: _452  and  _453
REMARK  187  A    between atoms: _452  and  _455
REMARK  188  A    between atoms: _458  and  _460
REMARK  189  A    between atoms: _460  and  _461
REMARK  190  A    between atoms: _460  and  _463
REMARK  191  A    between atoms: _463  and  _464
REMARK  192  A    between atoms: _467  and  _469
REMARK  193  A    between atoms: _469  and  _470
REMARK  194  A    between atoms: _469  and  _472
REMARK  195  A    between atoms: _474  and  _476
REMARK  196  A    between atoms: _476  and  _477
REMARK  197  A    between atoms: _476  and  _479
REMARK  198  A    between atoms: _479  and  _480
REMARK  199  A    between atoms: _490  and  _492
REMARK  200  A    between atoms: _492  and  _493
REMARK  201  A    between atoms: _492  and  _495
REMARK  202  A    between atoms: _495  and  _496
REMARK  203  A    between atoms: _496  and  _497
REMARK  204  A    between atoms: _497  and  _498
REMARK  205  A    between atoms: _498  and  _499
REMARK  206  A    between atoms: _503  and  _505
REMARK  207  A    between atoms: _505  and  _506
REMARK  208  A    between atoms: _505  and  _508
REMARK  209  A    between atoms: _508  and  _509
REMARK  210  A    between atoms: _512  and  _513
REMARK  211  A    between atoms: _519  and  _520
REMARK  212  A    between atoms: _525  and  _527
REMARK  213  A    between atoms: _527  and  _528
REMARK  214  A    between atoms: _527  and  _530
REMARK  215  A    between atoms: _530  and  _531
REMARK  216  A    between atoms: _531  and  _532
REMARK  217  A    between atoms: _535  and  _537
REMARK  218  A    between atoms: _537  and  _538
REMARK  219  A    between atoms: _537  and  _540
REMARK  220  A    between atoms: _540  and  _541
REMARK  221  A    between atoms: _541  and  _542
REMARK  222  A    between atoms: _542  and  _543
REMARK  223  A    between atoms: _552  and  _554
REMARK  224  A    between atoms: _554  and  _555
REMARK  225  A    between atoms: _554  and  _557
REMARK  226  A    between atoms: _557  and  _558
REMARK  227  A    between atoms: _561  and  _563
REMARK  228  A    between atoms: _563  and  _564
REMARK  229  A    between atoms: _563  and  _566
REMARK  230  A    between atoms: _566  and  _567
REMARK  231  A    between atoms: _569  and  _571
REMARK  232  A    between atoms: _571  and  _572
REMARK  233  A    between atoms: _571  and  _574
REMARK  234  A    between atoms: _574  and  _575
REMARK  235  A    between atoms: _575  and  _576
REMARK  236  A    between atoms: _576  and  _577
REMARK  237  A    between atoms: _577  and  _578
REMARK  238  A    between atoms: _582  and  _584
REMARK  239  A    between atoms: _584  and  _585
REMARK  240  A    between atoms: _584  and  _587
REMARK  241  A    between atoms: _587  and  _588
REMARK  242  A    between atoms: _591  and  _593
REMARK  243  A    between atoms: _593  and  _594
REMARK  244  A    between atoms: _596  and  _598
REMARK  245  A    between atoms: _598  and  _599
REMARK  246  A    between atoms: _598  and  _601
REMARK  247  A    between atoms: _601  and  _602
REMARK  248  A    between atoms: _604  and  _606
REMARK  249  A    between atoms: _606  and  _607
REMARK  250  A    between atoms: _609  and  _611
REMARK  251  A    between atoms: _611  and  _612
REMARK  252  A    between atoms: _611  and  _614
REMARK  253  A    between atoms: _614  and  _615
REMARK  254  A    between atoms: _620  and  _622
REMARK  255  A    between atoms: _622  and  _623
REMARK  256  A    between atoms: _622  and  _625
REMARK  257  A    between atoms: _625  and  _626
REMARK  258  A    between atoms: _629  and  _631
REMARK  259  A    between atoms: _631  and  _632
REMARK  260  A    between atoms: _631  and  _634
REMARK  261  A    between atoms: _634  and  _635
REMARK  262  A    between atoms: _641  and  _643
REMARK  263  A    between atoms: _643  and  _644
REMARK  264  A    between atoms: _643  and  _646
REMARK  265  A    between atoms: _646  and  _647
REMARK  266  A    between atoms: _647  and  _648
REMARK  267  A    between atoms: _651  and  _653
REMARK  268  A    between atoms: _653  and  _654
REMARK  269  A    between atoms: _653  and  _656
REMARK  270  A    between atoms: _656  and  _657
REMARK  271  A    between atoms: _657  and  _658
REMARK  272  A    between atoms: _663  and  _665
REMARK  273  A    between atoms: _665  and  _666
REMARK  274  A    between atoms: _665  and  _668
REMARK  275  A    between atoms: _668  and  _669
REMARK  276  A    between atoms: _669  and  _670
REMARK  277  A    between atoms: _670  and  _671
REMARK  278  A    between atoms: _680  and  _682
REMARK  279  A    between atoms: _682  and  _683
REMARK  280  A    between atoms: _682  and  _685
REMARK  281  A    between atoms: _685  and  _686
REMARK  282  A    between atoms: _686  and  _687
REMARK  283  A    between atoms: _687  and  _688
REMARK  284  A    between atoms: _697  and  _699
REMARK  285  A    between atoms: _699  and  _700
REMARK  286  A    between atoms: _699  and  _702
REMARK  287  A    between atoms: _702  and  _703
REMARK  288  A    between atoms: _708  and  _709
REMARK  289  A    between atoms: _711  and  _713
REMARK  290  A    between atoms: _713  and  _714
REMARK  291  A    between atoms: _713  and  _716
REMARK  292  A    between atoms: _716  and  _717
REMARK  293  A    between atoms: _720  and  _722
REMARK  294  A    between atoms: _722  and  _723
REMARK  295  A    between atoms: _722  and  _725
REMARK  296  A    between atoms: _725  and  _726
REMARK  297  A    between atoms: _726  and  _727
REMARK  298  A    between atoms: _727  and  _728
REMARK  299  A    between atoms: _728  and  _729
REMARK  300  A    between atoms: _733  and  _735
REMARK  301  A    between atoms: _735  and  _736
REMARK  302  A    between atoms: _735  and  _738
REMARK  303  A    between atoms: _738  and  _739
REMARK  304  A    between atoms: _744  and  _746
REMARK  305  A    between atoms: _746  and  _747
REMARK  306  A    between atoms: _746  and  _749
REMARK  307  A    between atoms: _749  and  _750
REMARK  308  A    between atoms: _760  and  _762
REMARK  309  A    between atoms: _762  and  _763
REMARK  310  A    between atoms: _762  and  _765
REMARK  311  A    between atoms: _765  and  _766
REMARK  312  A    between atoms: _766  and  _767
REMARK  313  A    between atoms: _770  and  _772
REMARK  314  A    between atoms: _772  and  _773
REMARK  315  A    between atoms: _772  and  _775
REMARK  316  A    between atoms: _775  and  _776
REMARK  317  A    between atoms: _779  and  _781
REMARK  318  A    between atoms: _781  and  _782
REMARK  319  A    between atoms: _781  and  _784
REMARK  320  A    between atoms: _784  and  _785
REMARK  321  A    between atoms: _790  and  _792
REMARK  322  A    between atoms: _792  and  _793
REMARK  323  A    between atoms: _792  and  _795
REMARK  324  A    between atoms: _795  and  _796
REMARK  325  A    between atoms: _802  and  _804
REMARK  326  A    between atoms: _804  and  _805
REMARK  327  A    between atoms: _804  and  _807
REMARK  328  A    between atoms: _807  and  _808
REMARK  329  A    between atoms: _810  and  _812
REMARK  330  A    between atoms: _812  and  _813
REMARK  331  A    between atoms: _815  and  _817
REMARK  332  A    between atoms: _817  and  _818
REMARK  333  A    between atoms: _817  and  _820
REMARK  334  A    between atoms: _820  and  _821
REMARK  335  A    between atoms: _826  and  _827
REMARK  336  A    between atoms: _829  and  _831
REMARK  337  A    between atoms: _831  and  _832
REMARK  338  A    between atoms: _831  and  _834
REMARK  339  A    between atoms: _834  and  _835
REMARK  340  A    between atoms: _840  and  _841
REMARK  341  A    between atoms: _843  and  _845
REMARK  342  A    between atoms: _845  and  _846
REMARK  343  A    between atoms: _845  and  _848
REMARK  344  A    between atoms: _848  and  _849
REMARK  345  A    between atoms: _853  and  ZN_1037
REMARK  346  A    between atoms: _854  and  _856
REMARK  347  A    between atoms: _856  and  _857
REMARK  348  A    between atoms: _856  and  _859
REMARK  349  A    between atoms: _859  and  _860
REMARK  350  A    between atoms: _860  and  _861
REMARK  351  A    between atoms: _864  and  _866
REMARK  352  A    between atoms: _866  and  _867
REMARK  353  A    between atoms: _866  and  _869
REMARK  354  A    between atoms: _869  and  _870
REMARK  355  A    between atoms: _870  and  _871
REMARK  356  A    between atoms: _871  and  _872
REMARK  357  A    between atoms: _881  and  _883
REMARK  358  A    between atoms: _883  and  _884
REMARK  359  A    between atoms: _883  and  _886
REMARK  360  A    between atoms: _886  and  _887
REMARK  361  A    between atoms: _887  and  _888
REMARK  362  A    between atoms: _888  and  _889
REMARK  363  A    between atoms: _889  and  _890
REMARK  364  A    between atoms: _894  and  _896
REMARK  365  A    between atoms: _896  and  _897
REMARK  366  A    between atoms: _896  and  _899
REMARK  367  A    between atoms: _899  and  _900
REMARK  368  A    between atoms: _905  and  _906
REMARK  369  A    between atoms: _908  and  _910
REMARK  370  A    between atoms: _910  and  _911
REMARK  371  A    between atoms: _910  and  _913
REMARK  372  A    between atoms: _913  and  _914
REMARK  373  A    between atoms: _914  and  _915
REMARK  374  A    between atoms: _915  and  _916
REMARK  375  A    between atoms: _916  and  _917
REMARK  376  A    between atoms: _921  and  _923
REMARK  377  A    between atoms: _923  and  _924
REMARK  378  A    between atoms: _923  and  _926
REMARK  379  A    between atoms: _926  and  _927
REMARK  380  A    between atoms: _932  and  _933
REMARK  381  A    between atoms: _935  and  _937
REMARK  382  A    between atoms: _937  and  _938
REMARK  383  A    between atoms: _937  and  _940
REMARK  384  A    between atoms: _940  and  _941
REMARK  385  A    between atoms: _946  and  _947
REMARK  386  A    between atoms: _949  and  _951
REMARK  387  A    between atoms: _951  and  _952
REMARK  388  A    between atoms: _956  and  _957
REMARK  389  A    between atoms: _962  and  _964
REMARK  390  A    between atoms: _964  and  _965
REMARK  391  A    between atoms: _964  and  _967
REMARK  392  A    between atoms: _967  and  _968
REMARK  393  A    between atoms: _970  and  _972
REMARK  394  A    between atoms: _972  and  _973
REMARK  395  A    between atoms: _972  and  _975
REMARK  396  A    between atoms: _975  and  _976
REMARK  397  A    between atoms: _981  and  _983
REMARK  398  A    between atoms: _983  and  _984
REMARK  399  A    between atoms: _983  and  _986
REMARK  400  A    between atoms: _986  and  _987
REMARK  401  A    between atoms: _987  and  _988
REMARK  402  A    between atoms: _988  and  _989
REMARK  403  A    between atoms: _989  and  _990
REMARK  404  A    between atoms: _994  and  _996
REMARK  405  A    between atoms: _996  and  _997
REMARK  406  A    between atoms: _996  and  _999
REMARK  407  A    between atoms: _999  and  _1000
REMARK  408  A    between atoms: _1005  and  _1006
REMARK  409  A    between atoms: _1008  and  _1010
REMARK  410  A    between atoms: _1010  and  _1011
REMARK  411  A    between atoms: _1014  and  _1016
REMARK  412  A    between atoms: _1016  and  _1017
REMARK  413  A    between atoms: _1019  and  _1021
REMARK  414  A    between atoms: _1021  and  _1022
REMARK  415  A    between atoms: _1021  and  _1024
REMARK  416  A    between atoms: _1024  and  _1025
REMARK  417  A    between atoms: _1025  and  _1026
REMARK  418  A    between atoms: _1029  and  _1031
REMARK  419  A    between atoms: _1031  and  _1032
REMARK  420  A    between atoms: _1031  and  _1034
REMARK  421  A    between atoms: _1034  and  _1035
REMARK                            x       y       z     vdW  Elec       q    Type
REMARK                         _______ _______ _______ _____ _____    ______ ____
ROOT
ATOM      1  O   HOH     1      39.684  50.822  52.406  0.00  0.00    +0.000 OA
ENDROOT
TORSDOF 0
REMARK  Name = ../refined-set-2016/2xef/2xef_pocket.pdb
REMARK  421 active torsions:
REMARK  status: ('A' for Active; 'I' for Inactive)
REMARK    1  A    between atoms: _1  and  _3
REMARK    2  A    between atoms: _3  and  _4
REMARK    3  A    between atoms: _7  and  _9
REMARK    4  A    between atoms: _9  and  _10
REMARK    5  A    between atoms: _9  and  _12
REMARK    6  A    between atoms: _12  and  _13
REMARK    7  A    between atoms: _19  and  _21
REMARK    8  A    between atoms: _21  and  _22
REMARK    9  A    between atoms: _21  and  _24
REMARK   10  A    between atoms: _24  and  _25
REMARK   11  A    between atoms: _30  and  _31
REMARK   12  A    between atoms: _33  and  _35
REMARK   13  A    between atoms: _35  and  _36
REMARK   14  A    between atoms: _38  and  _40
REMARK   15  A    between atoms: _40  and  _41
REMARK   16  A    between atoms: _40  and  _43
REMARK   17  A    between atoms: _43  and  _44
REMARK   18  A    between atoms: _44  and  _45
REMARK   19  A    between atoms: _45  and  _46
REMARK   20  A    between atoms: _46  and  _47
REMARK   21  A    between atoms: _51  and  _53
REMARK   22  A    between atoms: _53  and  _54
REMARK   23  A    between atoms: _53  and  _56
REMARK   24  A    between atoms: _59  and  _61
REMARK   25  A    between atoms: _61  and  _62
REMARK   26  A    between atoms: _61  and  _64
REMARK   27  A    between atoms: _64  and  _65
REMARK   28  A    between atoms: _71  and  _73
REMARK   29  A    between atoms: _73  and  _74
REMARK   30  A    between atoms: _73  and  _76
REMARK   31  A    between atoms: _76  and  _77
REMARK   32  A    between atoms: _77  and  _78
REMARK   33  A    between atoms: _78  and  _79
REMARK   34  A    between atoms: _88  and  _90
REMARK   35  A    between atoms: _90  and  _91
REMARK   36  A    between atoms: _93  and  _95
REMARK   37  A    between atoms: _95  and  _96
REMARK   38  A    between atoms: _95  and  _98
REMARK   39  A    between atoms: _98  and  _99
REMARK   40  A    between atoms: _99  and  _100
REMARK   41  A    between atoms: _100  and  _101
REMARK   42  A    between atoms: _101  and  _102
REMARK   43  A    between atoms: _106  and  _108
REMARK   44  A    between atoms: _108  and  _109
REMARK   45  A    between atoms: _108  and  _111
REMARK   46  A    between atoms: _111  and  _112
REMARK   47  A    between atoms: _117  and  _118
REMARK   48  A    between atoms: _120  and  _122
REMARK   49  A    between atoms: _122  and  _123
REMARK   50  A    between atoms: _122  and  _125
REMARK   51  A    between atoms: _125  and  _126
REMARK   52  A    between atoms: _126  and  _127
REMARK   53  A    between atoms: _132  and  _134
REMARK   54  A    between atoms: _134  and  _135
REMARK   55  A    between atoms: _134  and  _137
REMARK   56  A    between atoms: _137  and  _138
REMARK   57  A    between atoms: _138  and  _139
REMARK   58  A    between atoms: _139  and  _140
REMARK   59  A    between atoms: _149  and  _151
REMARK   60  A    between atoms: _151  and  _152
REMARK   61  A    between atoms: _154  and  _156
REMARK   62  A    between atoms: _156  and  _157
REMARK   63  A    between atoms: _156  and  _159
REMARK   64  A    between atoms: _159  and  _160
REMARK   65  A    between atoms: _165  and  _167
REMARK   66  A    between atoms: _167  and  _168
REMARK   67  A    between atoms: _167  and  _170
REMARK   68  A    between atoms: _170  and  _171
REMARK   69  A    between atoms: _174  and  _176
REMARK   70  A    between atoms: _176  and  _177
REMARK   71  A    between atoms: _176  and  _179
REMARK   72  A    between atoms: _179  and  _180
REMARK   73  A    between atoms: _183  and  _185
REMARK   74  A    between atoms: _185  and  _186
REMARK   75  A    between atoms: _185  and  _188
REMARK   76  A    between atoms: _188  and  _189
REMARK   77  A    between atoms: _194  and  _196
REMARK   78  A    between atoms: _196  and  _197
REMARK   79  A    between atoms: _196  and  _199
REMARK   80  A    between atoms: _199  and  _200
REMARK   81  A    between atoms: _203  and  _205
REMARK   82  A    between atoms: _205  and  _206
REMARK   83  A    between atoms: _205  and  _208
REMARK   84  A    between atoms: _208  and  _209
REMARK   85  A    between atoms: _214  and  _216
REMARK   86  A    between atoms: _216  and  _217
REMARK   87  A    between atoms: _219  and  _221
REMARK   88  A    between atoms: _221  and  _222
REMARK   89  A    between atoms: _224  and  _226
REMARK   90  A    between atoms: _226  and  _227
REMARK   91  A    between atoms: _226  and  _229
REMARK   92  A    between atoms: _229  and  _230
REMARK   93  A    between atoms: _234  and  ZN_1038
REMARK   94  A    between atoms: _235  and  _237
REMARK   95  A    between atoms: _237  and  _238
REMARK   96  A    between atoms: _237  and  _240
REMARK   97  A    between atoms: _240  and  _241
REMARK   98  A    between atoms: _244  and  _246
REMARK   99  A    between atoms: _246  and  _247
REMARK  100  A    between atoms: _246  and  _249
REMARK  101  A    between atoms: _249  and  _250
REMARK  102  A    between atoms: _260  and  _262
REMARK  103  A    between atoms: _262  and  _263
REMARK  104  A    between atoms: _262  and  _265
REMARK  105  A    between atoms: _265  and  _266
REMARK  106  A    between atoms: _269  and  _271
REMARK  107  A    between atoms: _271  and  _272
REMARK  108  A    between atoms: _271  and  _274
REMARK  109  A    between atoms: _274  and  _275
REMARK  110  A    between atoms: _279  and  _280
REMARK  111  A    between atoms: _285  and  _287
REMARK  112  A    between atoms: _287  and  _288
REMARK  113  A    between atoms: _291  and  _293
REMARK  114  A    between atoms: _293  and  _294
REMARK  115  A    between atoms: _293  and  _296
REMARK  116  A    between atoms: _296  and  _297
REMARK  117  A    between atoms: _297  and  _298
REMARK  118  A    between atoms: _301  and  _303
REMARK  119  A    between atoms: _303  and  _304
REMARK  120  A    between atoms: _303  and  _306
REMARK  121  A    between atoms: _306  and  _307
REMARK  122  A    between atoms: _307  and  _308
REMARK  123  A    between atoms: _308  and  _310
REMARK  124  A    between atoms: _310  and  ZN_1037
REMARK  125  A    between atoms: _311  and  _313
REMARK  126  A    between atoms: _313  and  _314
REMARK  127  A    between atoms: _313  and  _316
REMARK  128  A    between atoms: _316  and  _317
REMARK  129  A    between atoms: _323  and  _325
REMARK  130  A    between atoms: _325  and  _326
REMARK  131  A    between atoms: _328  and  _330
REMARK  132  A    between atoms: _330  and  _331
REMARK  133  A    between atoms: _330  and  _333
REMARK  134  A    between atoms: _333  and  _334
REMARK  135  A    between atoms: _337  and  _339
REMARK  136  A    between atoms: _339  and  _340
REMARK  137  A    between atoms: _339  and  _342
REMARK  138  A    between atoms: _342  and  _343
REMARK  139  A    between atoms: _346  and  _348
REMARK  140  A    between atoms: _348  and  _349
REMARK  141  A    between atoms: _348  and  _351
REMARK  142  A    between atoms: _351  and  _352
REMARK  143  A    between atoms: _357  and  _359
REMARK  144  A    between atoms: _359  and  _360
REMARK  145  A    between atoms: _359  and  _362
REMARK  146  A    between atoms: _362  and  _363
REMARK  147  A    between atoms: _363  and  _365
REMARK  148  A    between atoms: _365  and  ZN_1038
REMARK  149  A    between atoms: _366  and  _368
REMARK  150  A    between atoms: _368  and  _369
REMARK  151  A    between atoms: _368  and  _371
REMARK  152  A    between atoms: _371  and  _372
REMARK  153  A    between atoms: _374  and  _376
REMARK  154  A    between atoms: _376  and  _377
REMARK  155  A    between atoms: _376  and  _379
REMARK  156  A    between atoms: _379  and  _380
REMARK  157  A    between atoms: _382  and  _384
REMARK  158  A    between atoms: _384  and  _385
REMARK  159  A    between atoms: _384  and  _387
REMARK  160  A    between atoms: _387  and  _388
REMARK  161  A    between atoms: _391  and  _393
REMARK  162  A    between atoms: _393  and  _394
REMARK  163  A    between atoms: _393  and  _396
REMARK  164  A    between atoms: _396  and  _397
REMARK  165  A    between atoms: _397  and  _398
REMARK  166  A    between atoms: _401  and  _403
REMARK  167  A    between atoms: _403  and  _404
REMARK  168  A    between atoms: _403  and  _406
REMARK  169  A    between atoms: _406  and  _407
REMARK  170  A    between atoms: _412  and  _413
REMARK  171  A    between atoms: _415  and  _417
REMARK  172  A    between atoms: _417  and  _418
REMARK  173  A    between atoms: _417  and  _420
REMARK  174  A    between atoms: _420  and  _421
REMARK  175  A    between atoms: _424  and  _426
REMARK  176  A    between atoms: _426  and  _427
REMARK  177  A    between atoms: _426  and  _429
REMARK  178  A    between atoms: _429  and  _430
REMARK  179  A    between atoms: _433  and  _435
REMARK  180  A    between atoms: _435  and  _436
REMARK  181  A    between atoms: _435  and  _438
REMARK  182  A    between atoms: _438  and  _439
REMARK  183  A    between atoms: _439  and  _440
REMARK  184  A    between atoms: _440  and  _441
REMARK  185  A    between atoms: _450  and  _452
REMARK  186  A    between atoms: _452  and  _453
REMARK  187  A    between atoms: _452  and  _455
REMARK  188  A    between atoms: _458  and  _460
REMARK  189  A    between atoms: _460  and  _461
REMARK  190  A    between atoms: _460  and  _463
REMARK  191  A    between atoms: _463  and  _464
REMARK  192  A    between atoms: _467  and  _469
REMARK  193  A    between atoms: _469  and  _470
REMARK  194  A    between atoms: _469  and  _472
REMARK  195  A    between atoms: _474  and  _476
REMARK  196  A    between atoms: _476  and  _477
REMARK  197  A    between atoms: _476  and  _479
REMARK  198  A    between atoms: _479  and  _480
REMARK  199  A    between atoms: _490  and  _492
REMARK  200  A    between atoms: _492  and  _493
REMARK  201  A    between atoms: _492  and  _495
REMARK  202  A    between atoms: _495  and  _496
REMARK  203  A    between atoms: _496  and  _497
REMARK  204  A    between atoms: _497  and  _498
REMARK  205  A    between atoms: _498  and  _499
REMARK  206  A    between atoms: _503  and  _505
REMARK  207  A    between atoms: _505  and  _506
REMARK  208  A    between atoms: _505  and  _508
REMARK  209  A    between atoms: _508  and  _509
REMARK  210  A    between atoms: _512  and  _513
REMARK  211  A    between atoms: _519  and  _520
REMARK  212  A    between atoms: _525  and  _527
REMARK  213  A    between atoms: _527  and  _528
REMARK  214  A    between atoms: _527  and  _530
REMARK  215  A    between atoms: _530  and  _531
REMARK  216  A    between atoms: _531  and  _532
REMARK  217  A    between atoms: _535  and  _537
REMARK  218  A    between atoms: _537  and  _538
REMARK  219  A    between atoms: _537  and  _540
REMARK  220  A    between atoms: _540  and  _541
REMARK  221  A    between atoms: _541  and  _542
REMARK  222  A    between atoms: _542  and  _543
REMARK  223  A    between atoms: _552  and  _554
REMARK  224  A    between atoms: _554  and  _555
REMARK  225  A    between atoms: _554  and  _557
REMARK  226  A    between atoms: _557  and  _558
REMARK  227  A    between atoms: _561  and  _563
REMARK  228  A    between atoms: _563  and  _564
REMARK  229  A    between atoms: _563  and  _566
REMARK  230  A    between atoms: _566  and  _567
REMARK  231  A    between atoms: _569  and  _571
REMARK  232  A    between atoms: _571  and  _572
REMARK  233  A    between atoms: _571  and  _574
REMARK  234  A    between atoms: _574  and  _575
REMARK  235  A    between atoms: _575  and  _576
REMARK  236  A    between atoms: _576  and  _577
REMARK  237  A    between atoms: _577  and  _578
REMARK  238  A    between atoms: _582  and  _584
REMARK  239  A    between atoms: _584  and  _585
REMARK  240  A    between atoms: _584  and  _587
REMARK  241  A    between atoms: _587  and  _588
REMARK  242  A    between atoms: _591  and  _593
REMARK  243  A    between atoms: _593  and  _594
REMARK  244  A    between atoms: _596  and  _598
REMARK  245  A    between atoms: _598  and  _599
REMARK  246  A    between atoms: _598  and  _601
REMARK  247  A    between atoms: _601  and  _602
REMARK  248  A    between atoms: _604  and  _606
REMARK  249  A    between atoms: _606  and  _607
REMARK  250  A    between atoms: _609  and  _611
REMARK  251  A    between atoms: _611  and  _612
REMARK  252  A    between atoms: _611  and  _614
REMARK  253  A    between atoms: _614  and  _615
REMARK  254  A    between atoms: _620  and  _622
REMARK  255  A    between atoms: _622  and  _623
REMARK  256  A    between atoms: _622  and  _625
REMARK  257  A    between atoms: _625  and  _626
REMARK  258  A    between atoms: _629  and  _631
REMARK  259  A    between atoms: _631  and  _632
REMARK  260  A    between atoms: _631  and  _634
REMARK  261  A    between atoms: _634  and  _635
REMARK  262  A    between atoms: _641  and  _643
REMARK  263  A    between atoms: _643  and  _644
REMARK  264  A    between atoms: _643  and  _646
REMARK  265  A    between atoms: _646  and  _647
REMARK  266  A    between atoms: _647  and  _648
REMARK  267  A    between atoms: _651  and  _653
REMARK  268  A    between atoms: _653  and  _654
REMARK  269  A    between atoms: _653  and  _656
REMARK  270  A    between atoms: _656  and  _657
REMARK  271  A    between atoms: _657  and  _658
REMARK  272  A    between atoms: _663  and  _665
REMARK  273  A    between atoms: _665  and  _666
REMARK  274  A    between atoms: _665  and  _668
REMARK  275  A    between atoms: _668  and  _669
REMARK  276  A    between atoms: _669  and  _670
REMARK  277  A    between atoms: _670  and  _671
REMARK  278  A    between atoms: _680  and  _682
REMARK  279  A    between atoms: _682  and  _683
REMARK  280  A    between atoms: _682  and  _685
REMARK  281  A    between atoms: _685  and  _686
REMARK  282  A    between atoms: _686  and  _687
REMARK  283  A    between atoms: _687  and  _688
REMARK  284  A    between atoms: _697  and  _699
REMARK  285  A    between atoms: _699  and  _700
REMARK  286  A    between atoms: _699  and  _702
REMARK  287  A    between atoms: _702  and  _703
REMARK  288  A    between atoms: _708  and  _709
REMARK  289  A    between atoms: _711  and  _713
REMARK  290  A    between atoms: _713  and  _714
REMARK  291  A    between atoms: _713  and  _716
REMARK  292  A    between atoms: _716  and  _717
REMARK  293  A    between atoms: _720  and  _722
REMARK  294  A    between atoms: _722  and  _723
REMARK  295  A    between atoms: _722  and  _725
REMARK  296  A    between atoms: _725  and  _726
REMARK  297  A    between atoms: _726  and  _727
REMARK  298  A    between atoms: _727  and  _728
REMARK  299  A    between atoms: _728  and  _729
REMARK  300  A    between atoms: _733  and  _735
REMARK  301  A    between atoms: _735  and  _736
REMARK  302  A    between atoms: _735  and  _738
REMARK  303  A    between atoms: _738  and  _739
REMARK  304  A    between atoms: _744  and  _746
REMARK  305  A    between atoms: _746  and  _747
REMARK  306  A    between atoms: _746  and  _749
REMARK  307  A    between atoms: _749  and  _750
REMARK  308  A    between atoms: _760  and  _762
REMARK  309  A    between atoms: _762  and  _763
REMARK  310  A    between atoms: _762  and  _765
REMARK  311  A    between atoms: _765  and  _766
REMARK  312  A    between atoms: _766  and  _767
REMARK  313  A    between atoms: _770  and  _772
REMARK  314  A    between atoms: _772  and  _773
REMARK  315  A    between atoms: _772  and  _775
REMARK  316  A    between atoms: _775  and  _776
REMARK  317  A    between atoms: _779  and  _781
REMARK  318  A    between atoms: _781  and  _782
REMARK  319  A    between atoms: _781  and  _784
REMARK  320  A    between atoms: _784  and  _785
REMARK  321  A    between atoms: _790  and  _792
REMARK  322  A    between atoms: _792  and  _793
REMARK  323  A    between atoms: _792  and  _795
REMARK  324  A    between atoms: _795  and  _796
REMARK  325  A    between atoms: _802  and  _804
REMARK  326  A    between atoms: _804  and  _805
REMARK  327  A    between atoms: _804  and  _807
REMARK  328  A    between atoms: _807  and  _808
REMARK  329  A    between atoms: _810  and  _812
REMARK  330  A    between atoms: _812  and  _813
REMARK  331  A    between atoms: _815  and  _817
REMARK  332  A    between atoms: _817  and  _818
REMARK  333  A    between atoms: _817  and  _820
REMARK  334  A    between atoms: _820  and  _821
REMARK  335  A    between atoms: _826  and  _827
REMARK  336  A    between atoms: _829  and  _831
REMARK  337  A    between atoms: _831  and  _832
REMARK  338  A    between atoms: _831  and  _834
REMARK  339  A    between atoms: _834  and  _835
REMARK  340  A    between atoms: _840  and  _841
REMARK  341  A    between atoms: _843  and  _845
REMARK  342  A    between atoms: _845  and  _846
REMARK  343  A    between atoms: _845  and  _848
REMARK  344  A    between atoms: _848  and  _849
REMARK  345  A    between atoms: _853  and  ZN_1037
REMARK  346  A    between atoms: _854  and  _856
REMARK  347  A    between atoms: _856  and  _857
REMARK  348  A    between atoms: _856  and  _859
REMARK  349  A    between atoms: _859  and  _860
REMARK  350  A    between atoms: _860  and  _861
REMARK  351  A    between atoms: _864  and  _866
REMARK  352  A    between atoms: _866  and  _867
REMARK  353  A    between atoms: _866  and  _869
REMARK  354  A    between atoms: _869  and  _870
REMARK  355  A    between atoms: _870  and  _871
REMARK  356  A    between atoms: _871  and  _872
REMARK  357  A    between atoms: _881  and  _883
REMARK  358  A    between atoms: _883  and  _884
REMARK  359  A    between atoms: _883  and  _886
REMARK  360  A    between atoms: _886  and  _887
REMARK  361  A    between atoms: _887  and  _888
REMARK  362  A    between atoms: _888  and  _889
REMARK  363  A    between atoms: _889  and  _890
REMARK  364  A    between atoms: _894  and  _896
REMARK  365  A    between atoms: _896  and  _897
REMARK  366  A    between atoms: _896  and  _899
REMARK  367  A    between atoms: _899  and  _900
REMARK  368  A    between atoms: _905  and  _906
REMARK  369  A    between atoms: _908  and  _910
REMARK  370  A    between atoms: _910  and  _911
REMARK  371  A    between atoms: _910  and  _913
REMARK  372  A    between atoms: _913  and  _914
REMARK  373  A    between atoms: _914  and  _915
REMARK  374  A    between atoms: _915  and  _916
REMARK  375  A    between atoms: _916  and  _917
REMARK  376  A    between atoms: _921  and  _923
REMARK  377  A    between atoms: _923  and  _924
REMARK  378  A    between atoms: _923  and  _926
REMARK  379  A    between atoms: _926  and  _927
REMARK  380  A    between atoms: _932  and  _933
REMARK  381  A    between atoms: _935  and  _937
REMARK  382  A    between atoms: _937  and  _938
REMARK  383  A    between atoms: _937  and  _940
REMARK  384  A    between atoms: _940  and  _941
REMARK  385  A    between atoms: _946  and  _947
REMARK  386  A    between atoms: _949  and  _951
REMARK  387  A    between atoms: _951  and  _952
REMARK  388  A    between atoms: _956  and  _957
REMARK  389  A    between atoms: _962  and  _964
REMARK  390  A    between atoms: _964  and  _965
REMARK  391  A    between atoms: _964  and  _967
REMARK  392  A    between atoms: _967  and  _968
REMARK  393  A    between atoms: _970  and  _972
REMARK  394  A    between atoms: _972  and  _973
REMARK  395  A    between atoms: _972  and  _975
REMARK  396  A    between atoms: _975  and  _976
REMARK  397  A    between atoms: _981  and  _983
REMARK  398  A    between atoms: _983  and  _984
REMARK  399  A    between atoms: _983  and  _986
REMARK  400  A    between atoms: _986  and  _987
REMARK  401  A    between atoms: _987  and  _988
REMARK  402  A    between atoms: _988  and  _989
REMARK  403  A    between atoms: _989  and  _990
REMARK  404  A    between atoms: _994  and  _996
REMARK  405  A    between atoms: _996  and  _997
REMARK  406  A    between atoms: _996  and  _999
REMARK  407  A    between atoms: _999  and  _1000
REMARK  408  A    between atoms: _1005  and  _1006
REMARK  409  A    between atoms: _1008  and  _1010
REMARK  410  A    between atoms: _1010  and  _1011
REMARK  411  A    between atoms: _1014  and  _1016
REMARK  412  A    between atoms: _1016  and  _1017
REMARK  413  A    between atoms: _1019  and  _1021
REMARK  414  A    between atoms: _1021  and  _1022
REMARK  415  A    between atoms: _1021  and  _1024
REMARK  416  A    between atoms: _1024  and  _1025
REMARK  417  A    between atoms: _1025  and  _1026
REMARK  418  A    between atoms: _1029  and  _1031
REMARK  419  A    between atoms: _1031  and  _1032
REMARK  420  A    between atoms: _1031  and  _1034
REMARK  421  A    between atoms: _1034  and  _1035
REMARK                            x       y       z     vdW  Elec       q    Type
REMARK                         _______ _______ _______ _____ _____    ______ ____
ROOT
ATOM      1  O   HOH     1      23.326  49.800  51.977  0.00  0.00    +0.000 OA
ENDROOT
TORSDOF 0
REMARK  Name = ../refined-set-2016/2xef/2xef_pocket.pdb
REMARK  421 active torsions:
REMARK  status: ('A' for Active; 'I' for Inactive)
REMARK    1  A    between atoms: _1  and  _3
REMARK    2  A    between atoms: _3  and  _4
REMARK    3  A    between atoms: _7  and  _9
REMARK    4  A    between atoms: _9  and  _10
REMARK    5  A    between atoms: _9  and  _12
REMARK    6  A    between atoms: _12  and  _13
REMARK    7  A    between atoms: _19  and  _21
REMARK    8  A    between atoms: _21  and  _22
REMARK    9  A    between atoms: _21  and  _24
REMARK   10  A    between atoms: _24  and  _25
REMARK   11  A    between atoms: _30  and  _31
REMARK   12  A    between atoms: _33  and  _35
REMARK   13  A    between atoms: _35  and  _36
REMARK   14  A    between atoms: _38  and  _40
REMARK   15  A    between atoms: _40  and  _41
REMARK   16  A    between atoms: _40  and  _43
REMARK   17  A    between atoms: _43  and  _44
REMARK   18  A    between atoms: _44  and  _45
REMARK   19  A    between atoms: _45  and  _46
REMARK   20  A    between atoms: _46  and  _47
REMARK   21  A    between atoms: _51  and  _53
REMARK   22  A    between atoms: _53  and  _54
REMARK   23  A    between atoms: _53  and  _56
REMARK   24  A    between atoms: _59  and  _61
REMARK   25  A    between atoms: _61  and  _62
REMARK   26  A    between atoms: _61  and  _64
REMARK   27  A    between atoms: _64  and  _65
REMARK   28  A    between atoms: _71  and  _73
REMARK   29  A    between atoms: _73  and  _74
REMARK   30  A    between atoms: _73  and  _76
REMARK   31  A    between atoms: _76  and  _77
REMARK   32  A    between atoms: _77  and  _78
REMARK   33  A    between atoms: _78  and  _79
REMARK   34  A    between atoms: _88  and  _90
REMARK   35  A    between atoms: _90  and  _91
REMARK   36  A    between atoms: _93  and  _95
REMARK   37  A    between atoms: _95  and  _96
REMARK   38  A    between atoms: _95  and  _98
REMARK   39  A    between atoms: _98  and  _99
REMARK   40  A    between atoms: _99  and  _100
REMARK   41  A    between atoms: _100  and  _101
REMARK   42  A    between atoms: _101  and  _102
REMARK   43  A    between atoms: _106  and  _108
REMARK   44  A    between atoms: _108  and  _109
REMARK   45  A    between atoms: _108  and  _111
REMARK   46  A    between atoms: _111  and  _112
REMARK   47  A    between atoms: _117  and  _118
REMARK   48  A    between atoms: _120  and  _122
REMARK   49  A    between atoms: _122  and  _123
REMARK   50  A    between atoms: _122  and  _125
REMARK   51  A    between atoms: _125  and  _126
REMARK   52  A    between atoms: _126  and  _127
REMARK   53  A    between atoms: _132  and  _134
REMARK   54  A    between atoms: _134  and  _135
REMARK   55  A    between atoms: _134  and  _137
REMARK   56  A    between atoms: _137  and  _138
REMARK   57  A    between atoms: _138  and  _139
REMARK   58  A    between atoms: _139  and  _140
REMARK   59  A    between atoms: _149  and  _151
REMARK   60  A    between atoms: _151  and  _152
REMARK   61  A    between atoms: _154  and  _156
REMARK   62  A    between atoms: _156  and  _157
REMARK   63  A    between atoms: _156  and  _159
REMARK   64  A    between atoms: _159  and  _160
REMARK   65  A    between atoms: _165  and  _167
REMARK   66  A    between atoms: _167  and  _168
REMARK   67  A    between atoms: _167  and  _170
REMARK   68  A    between atoms: _170  and  _171
REMARK   69  A    between atoms: _174  and  _176
REMARK   70  A    between atoms: _176  and  _177
REMARK   71  A    between atoms: _176  and  _179
REMARK   72  A    between atoms: _179  and  _180
REMARK   73  A    between atoms: _183  and  _185
REMARK   74  A    between atoms: _185  and  _186
REMARK   75  A    between atoms: _185  and  _188
REMARK   76  A    between atoms: _188  and  _189
REMARK   77  A    between atoms: _194  and  _196
REMARK   78  A    between atoms: _196  and  _197
REMARK   79  A    between atoms: _196  and  _199
REMARK   80  A    between atoms: _199  and  _200
REMARK   81  A    between atoms: _203  and  _205
REMARK   82  A    between atoms: _205  and  _206
REMARK   83  A    between atoms: _205  and  _208
REMARK   84  A    between atoms: _208  and  _209
REMARK   85  A    between atoms: _214  and  _216
REMARK   86  A    between atoms: _216  and  _217
REMARK   87  A    between atoms: _219  and  _221
REMARK   88  A    between atoms: _221  and  _222
REMARK   89  A    between atoms: _224  and  _226
REMARK   90  A    between atoms: _226  and  _227
REMARK   91  A    between atoms: _226  and  _229
REMARK   92  A    between atoms: _229  and  _230
REMARK   93  A    between atoms: _234  and  ZN_1038
REMARK   94  A    between atoms: _235  and  _237
REMARK   95  A    between atoms: _237  and  _238
REMARK   96  A    between atoms: _237  and  _240
REMARK   97  A    between atoms: _240  and  _241
REMARK   98  A    between atoms: _244  and  _246
REMARK   99  A    between atoms: _246  and  _247
REMARK  100  A    between atoms: _246  and  _249
REMARK  101  A    between atoms: _249  and  _250
REMARK  102  A    between atoms: _260  and  _262
REMARK  103  A    between atoms: _262  and  _263
REMARK  104  A    between atoms: _262  and  _265
REMARK  105  A    between atoms: _265  and  _266
REMARK  106  A    between atoms: _269  and  _271
REMARK  107  A    between atoms: _271  and  _272
REMARK  108  A    between atoms: _271  and  _274
REMARK  109  A    between atoms: _274  and  _275
REMARK  110  A    between atoms: _279  and  _280
REMARK  111  A    between atoms: _285  and  _287
REMARK  112  A    between atoms: _287  and  _288
REMARK  113  A    between atoms: _291  and  _293
REMARK  114  A    between atoms: _293  and  _294
REMARK  115  A    between atoms: _293  and  _296
REMARK  116  A    between atoms: _296  and  _297
REMARK  117  A    between atoms: _297  and  _298
REMARK  118  A    between atoms: _301  and  _303
REMARK  119  A    between atoms: _303  and  _304
REMARK  120  A    between atoms: _303  and  _306
REMARK  121  A    between atoms: _306  and  _307
REMARK  122  A    between atoms: _307  and  _308
REMARK  123  A    between atoms: _308  and  _310
REMARK  124  A    between atoms: _310  and  ZN_1037
REMARK  125  A    between atoms: _311  and  _313
REMARK  126  A    between atoms: _313  and  _314
REMARK  127  A    between atoms: _313  and  _316
REMARK  128  A    between atoms: _316  and  _317
REMARK  129  A    between atoms: _323  and  _325
REMARK  130  A    between atoms: _325  and  _326
REMARK  131  A    between atoms: _328  and  _330
REMARK  132  A    between atoms: _330  and  _331
REMARK  133  A    between atoms: _330  and  _333
REMARK  134  A    between atoms: _333  and  _334
REMARK  135  A    between atoms: _337  and  _339
REMARK  136  A    between atoms: _339  and  _340
REMARK  137  A    between atoms: _339  and  _342
REMARK  138  A    between atoms: _342  and  _343
REMARK  139  A    between atoms: _346  and  _348
REMARK  140  A    between atoms: _348  and  _349
REMARK  141  A    between atoms: _348  and  _351
REMARK  142  A    between atoms: _351  and  _352
REMARK  143  A    between atoms: _357  and  _359
REMARK  144  A    between atoms: _359  and  _360
REMARK  145  A    between atoms: _359  and  _362
REMARK  146  A    between atoms: _362  and  _363
REMARK  147  A    between atoms: _363  and  _365
REMARK  148  A    between atoms: _365  and  ZN_1038
REMARK  149  A    between atoms: _366  and  _368
REMARK  150  A    between atoms: _368  and  _369
REMARK  151  A    between atoms: _368  and  _371
REMARK  152  A    between atoms: _371  and  _372
REMARK  153  A    between atoms: _374  and  _376
REMARK  154  A    between atoms: _376  and  _377
REMARK  155  A    between atoms: _376  and  _379
REMARK  156  A    between atoms: _379  and  _380
REMARK  157  A    between atoms: _382  and  _384
REMARK  158  A    between atoms: _384  and  _385
REMARK  159  A    between atoms: _384  and  _387
REMARK  160  A    between atoms: _387  and  _388
REMARK  161  A    between atoms: _391  and  _393
REMARK  162  A    between atoms: _393  and  _394
REMARK  163  A    between atoms: _393  and  _396
REMARK  164  A    between atoms: _396  and  _397
REMARK  165  A    between atoms: _397  and  _398
REMARK  166  A    between atoms: _401  and  _403
REMARK  167  A    between atoms: _403  and  _404
REMARK  168  A    between atoms: _403  and  _406
REMARK  169  A    between atoms: _406  and  _407
REMARK  170  A    between atoms: _412  and  _413
REMARK  171  A    between atoms: _415  and  _417
REMARK  172  A    between atoms: _417  and  _418
REMARK  173  A    between atoms: _417  and  _420
REMARK  174  A    between atoms: _420  and  _421
REMARK  175  A    between atoms: _424  and  _426
REMARK  176  A    between atoms: _426  and  _427
REMARK  177  A    between atoms: _426  and  _429
REMARK  178  A    between atoms: _429  and  _430
REMARK  179  A    between atoms: _433  and  _435
REMARK  180  A    between atoms: _435  and  _436
REMARK  181  A    between atoms: _435  and  _438
REMARK  182  A    between atoms: _438  and  _439
REMARK  183  A    between atoms: _439  and  _440
REMARK  184  A    between atoms: _440  and  _441
REMARK  185  A    between atoms: _450  and  _452
REMARK  186  A    between atoms: _452  and  _453
REMARK  187  A    between atoms: _452  and  _455
REMARK  188  A    between atoms: _458  and  _460
REMARK  189  A    between atoms: _460  and  _461
REMARK  190  A    between atoms: _460  and  _463
REMARK  191  A    between atoms: _463  and  _464
REMARK  192  A    between atoms: _467  and  _469
REMARK  193  A    between atoms: _469  and  _470
REMARK  194  A    between atoms: _469  and  _472
REMARK  195  A    between atoms: _474  and  _476
REMARK  196  A    between atoms: _476  and  _477
REMARK  197  A    between atoms: _476  and  _479
REMARK  198  A    between atoms: _479  and  _480
REMARK  199  A    between atoms: _490  and  _492
REMARK  200  A    between atoms: _492  and  _493
REMARK  201  A    between atoms: _492  and  _495
REMARK  202  A    between atoms: _495  and  _496
REMARK  203  A    between atoms: _496  and  _497
REMARK  204  A    between atoms: _497  and  _498
REMARK  205  A    between atoms: _498  and  _499
REMARK  206  A    between atoms: _503  and  _505
REMARK  207  A    between atoms: _505  and  _506
REMARK  208  A    between atoms: _505  and  _508
REMARK  209  A    between atoms: _508  and  _509
REMARK  210  A    between atoms: _512  and  _513
REMARK  211  A    between atoms: _519  and  _520
REMARK  212  A    between atoms: _525  and  _527
REMARK  213  A    between atoms: _527  and  _528
REMARK  214  A    between atoms: _527  and  _530
REMARK  215  A    between atoms: _530  and  _531
REMARK  216  A    between atoms: _531  and  _532
REMARK  217  A    between atoms: _535  and  _537
REMARK  218  A    between atoms: _537  and  _538
REMARK  219  A    between atoms: _537  and  _540
REMARK  220  A    between atoms: _540  and  _541
REMARK  221  A    between atoms: _541  and  _542
REMARK  222  A    between atoms: _542  and  _543
REMARK  223  A    between atoms: _552  and  _554
REMARK  224  A    between atoms: _554  and  _555
REMARK  225  A    between atoms: _554  and  _557
REMARK  226  A    between atoms: _557  and  _558
REMARK  227  A    between atoms: _561  and  _563
REMARK  228  A    between atoms: _563  and  _564
REMARK  229  A    between atoms: _563  and  _566
REMARK  230  A    between atoms: _566  and  _567
REMARK  231  A    between atoms: _569  and  _571
REMARK  232  A    between atoms: _571  and  _572
REMARK  233  A    between atoms: _571  and  _574
REMARK  234  A    between atoms: _574  and  _575
REMARK  235  A    between atoms: _575  and  _576
REMARK  236  A    between atoms: _576  and  _577
REMARK  237  A    between atoms: _577  and  _578
REMARK  238  A    between atoms: _582  and  _584
REMARK  239  A    between atoms: _584  and  _585
REMARK  240  A    between atoms: _584  and  _587
REMARK  241  A    between atoms: _587  and  _588
REMARK  242  A    between atoms: _591  and  _593
REMARK  243  A    between atoms: _593  and  _594
REMARK  244  A    between atoms: _596  and  _598
REMARK  245  A    between atoms: _598  and  _599
REMARK  246  A    between atoms: _598  and  _601
REMARK  247  A    between atoms: _601  and  _602
REMARK  248  A    between atoms: _604  and  _606
REMARK  249  A    between atoms: _606  and  _607
REMARK  250  A    between atoms: _609  and  _611
REMARK  251  A    between atoms: _611  and  _612
REMARK  252  A    between atoms: _611  and  _614
REMARK  253  A    between atoms: _614  and  _615
REMARK  254  A    between atoms: _620  and  _622
REMARK  255  A    between atoms: _622  and  _623
REMARK  256  A    between atoms: _622  and  _625
REMARK  257  A    between atoms: _625  and  _626
REMARK  258  A    between atoms: _629  and  _631
REMARK  259  A    between atoms: _631  and  _632
REMARK  260  A    between atoms: _631  and  _634
REMARK  261  A    between atoms: _634  and  _635
REMARK  262  A    between atoms: _641  and  _643
REMARK  263  A    between atoms: _643  and  _644
REMARK  264  A    between atoms: _643  and  _646
REMARK  265  A    between atoms: _646  and  _647
REMARK  266  A    between atoms: _647  and  _648
REMARK  267  A    between atoms: _651  and  _653
REMARK  268  A    between atoms: _653  and  _654
REMARK  269  A    between atoms: _653  and  _656
REMARK  270  A    between atoms: _656  and  _657
REMARK  271  A    between atoms: _657  and  _658
REMARK  272  A    between atoms: _663  and  _665
REMARK  273  A    between atoms: _665  and  _666
REMARK  274  A    between atoms: _665  and  _668
REMARK  275  A    between atoms: _668  and  _669
REMARK  276  A    between atoms: _669  and  _670
REMARK  277  A    between atoms: _670  and  _671
REMARK  278  A    between atoms: _680  and  _682
REMARK  279  A    between atoms: _682  and  _683
REMARK  280  A    between atoms: _682  and  _685
REMARK  281  A    between atoms: _685  and  _686
REMARK  282  A    between atoms: _686  and  _687
REMARK  283  A    between atoms: _687  and  _688
REMARK  284  A    between atoms: _697  and  _699
REMARK  285  A    between atoms: _699  and  _700
REMARK  286  A    between atoms: _699  and  _702
REMARK  287  A    between atoms: _702  and  _703
REMARK  288  A    between atoms: _708  and  _709
REMARK  289  A    between atoms: _711  and  _713
REMARK  290  A    between atoms: _713  and  _714
REMARK  291  A    between atoms: _713  and  _716
REMARK  292  A    between atoms: _716  and  _717
REMARK  293  A    between atoms: _720  and  _722
REMARK  294  A    between atoms: _722  and  _723
REMARK  295  A    between atoms: _722  and  _725
REMARK  296  A    between atoms: _725  and  _726
REMARK  297  A    between atoms: _726  and  _727
REMARK  298  A    between atoms: _727  and  _728
REMARK  299  A    between atoms: _728  and  _729
REMARK  300  A    between atoms: _733  and  _735
REMARK  301  A    between atoms: _735  and  _736
REMARK  302  A    between atoms: _735  and  _738
REMARK  303  A    between atoms: _738  and  _739
REMARK  304  A    between atoms: _744  and  _746
REMARK  305  A    between atoms: _746  and  _747
REMARK  306  A    between atoms: _746  and  _749
REMARK  307  A    between atoms: _749  and  _750
REMARK  308  A    between atoms: _760  and  _762
REMARK  309  A    between atoms: _762  and  _763
REMARK  310  A    between atoms: _762  and  _765
REMARK  311  A    between atoms: _765  and  _766
REMARK  312  A    between atoms: _766  and  _767
REMARK  313  A    between atoms: _770  and  _772
REMARK  314  A    between atoms: _772  and  _773
REMARK  315  A    between atoms: _772  and  _775
REMARK  316  A    between atoms: _775  and  _776
REMARK  317  A    between atoms: _779  and  _781
REMARK  318  A    between atoms: _781  and  _782
REMARK  319  A    between atoms: _781  and  _784
REMARK  320  A    between atoms: _784  and  _785
REMARK  321  A    between atoms: _790  and  _792
REMARK  322  A    between atoms: _792  and  _793
REMARK  323  A    between atoms: _792  and  _795
REMARK  324  A    between atoms: _795  and  _796
REMARK  325  A    between atoms: _802  and  _804
REMARK  326  A    between atoms: _804  and  _805
REMARK  327  A    between atoms: _804  and  _807
REMARK  328  A    between atoms: _807  and  _808
REMARK  329  A    between atoms: _810  and  _812
REMARK  330  A    between atoms: _812  and  _813
REMARK  331  A    between atoms: _815  and  _817
REMARK  332  A    between atoms: _817  and  _818
REMARK  333  A    between atoms: _817  and  _820
REMARK  334  A    between atoms: _820  and  _821
REMARK  335  A    between atoms: _826  and  _827
REMARK  336  A    between atoms: _829  and  _831
REMARK  337  A    between atoms: _831  and  _832
REMARK  338  A    between atoms: _831  and  _834
REMARK  339  A    between atoms: _834  and  _835
REMARK  340  A    between atoms: _840  and  _841
REMARK  341  A    between atoms: _843  and  _845
REMARK  342  A    between atoms: _845  and  _846
REMARK  343  A    between atoms: _845  and  _848
REMARK  344  A    between atoms: _848  and  _849
REMARK  345  A    between atoms: _853  and  ZN_1037
REMARK  346  A    between atoms: _854  and  _856
REMARK  347  A    between atoms: _856  and  _857
REMARK  348  A    between atoms: _856  and  _859
REMARK  349  A    between atoms: _859  and  _860
REMARK  350  A    between atoms: _860  and  _861
REMARK  351  A    between atoms: _864  and  _866
REMARK  352  A    between atoms: _866  and  _867
REMARK  353  A    between atoms: _866  and  _869
REMARK  354  A    between atoms: _869  and  _870
REMARK  355  A    between atoms: _870  and  _871
REMARK  356  A    between atoms: _871  and  _872
REMARK  357  A    between atoms: _881  and  _883
REMARK  358  A    between atoms: _883  and  _884
REMARK  359  A    between atoms: _883  and  _886
REMARK  360  A    between atoms: _886  and  _887
REMARK  361  A    between atoms: _887  and  _888
REMARK  362  A    between atoms: _888  and  _889
REMARK  363  A    between atoms: _889  and  _890
REMARK  364  A    between atoms: _894  and  _896
REMARK  365  A    between atoms: _896  and  _897
REMARK  366  A    between atoms: _896  and  _899
REMARK  367  A    between atoms: _899  and  _900
REMARK  368  A    between atoms: _905  and  _906
REMARK  369  A    between atoms: _908  and  _910
REMARK  370  A    between atoms: _910  and  _911
REMARK  371  A    between atoms: _910  and  _913
REMARK  372  A    between atoms: _913  and  _914
REMARK  373  A    between atoms: _914  and  _915
REMARK  374  A    between atoms: _915  and  _916
REMARK  375  A    between atoms: _916  and  _917
REMARK  376  A    between atoms: _921  and  _923
REMARK  377  A    between atoms: _923  and  _924
REMARK  378  A    between atoms: _923  and  _926
REMARK  379  A    between atoms: _926  and  _927
REMARK  380  A    between atoms: _932  and  _933
REMARK  381  A    between atoms: _935  and  _937
REMARK  382  A    between atoms: _937  and  _938
REMARK  383  A    between atoms: _937  and  _940
REMARK  384  A    between atoms: _940  and  _941
REMARK  385  A    between atoms: _946  and  _947
REMARK  386  A    between atoms: _949  and  _951
REMARK  387  A    between atoms: _951  and  _952
REMARK  388  A    between atoms: _956  and  _957
REMARK  389  A    between atoms: _962  and  _964
REMARK  390  A    between atoms: _964  and  _965
REMARK  391  A    between atoms: _964  and  _967
REMARK  392  A    between atoms: _967  and  _968
REMARK  393  A    between atoms: _970  and  _972
REMARK  394  A    between atoms: _972  and  _973
REMARK  395  A    between atoms: _972  and  _975
REMARK  396  A    between atoms: _975  and  _976
REMARK  397  A    between atoms: _981  and  _983
REMARK  398  A    between atoms: _983  and  _984
REMARK  399  A    between atoms: _983  and  _986
REMARK  400  A    between atoms: _986  and  _987
REMARK  401  A    between atoms: _987  and  _988
REMARK  402  A    between atoms: _988  and  _989
REMARK  403  A    between atoms: _989  and  _990
REMARK  404  A    between atoms: _994  and  _996
REMARK  405  A    between atoms: _996  and  _997
REMARK  406  A    between atoms: _996  and  _999
REMARK  407  A    between atoms: _999  and  _1000
REMARK  408  A    between atoms: _1005  and  _1006
REMARK  409  A    between atoms: _1008  and  _1010
REMARK  410  A    between atoms: _1010  and  _1011
REMARK  411  A    between atoms: _1014  and  _1016
REMARK  412  A    between atoms: _1016  and  _1017
REMARK  413  A    between atoms: _1019  and  _1021
REMARK  414  A    between atoms: _1021  and  _1022
REMARK  415  A    between atoms: _1021  and  _1024
REMARK  416  A    between atoms: _1024  and  _1025
REMARK  417  A    between atoms: _1025  and  _1026
REMARK  418  A    between atoms: _1029  and  _1031
REMARK  419  A    between atoms: _1031  and  _1032
REMARK  420  A    between atoms: _1031  and  _1034
REMARK  421  A    between atoms: _1034  and  _1035
REMARK                            x       y       z     vdW  Elec       q    Type
REMARK                         _______ _______ _______ _____ _____    ______ ____
ROOT
ATOM      1  O   HOH     1      22.365  49.880  44.761  0.00  0.00    +0.000 OA
ENDROOT
TORSDOF 0
REMARK  Name = ../refined-set-2016/2xef/2xef_pocket.pdb
REMARK  421 active torsions:
REMARK  status: ('A' for Active; 'I' for Inactive)
REMARK    1  A    between atoms: _1  and  _3
REMARK    2  A    between atoms: _3  and  _4
REMARK    3  A    between atoms: _7  and  _9
REMARK    4  A    between atoms: _9  and  _10
REMARK    5  A    between atoms: _9  and  _12
REMARK    6  A    between atoms: _12  and  _13
REMARK    7  A    between atoms: _19  and  _21
REMARK    8  A    between atoms: _21  and  _22
REMARK    9  A    between atoms: _21  and  _24
REMARK   10  A    between atoms: _24  and  _25
REMARK   11  A    between atoms: _30  and  _31
REMARK   12  A    between atoms: _33  and  _35
REMARK   13  A    between atoms: _35  and  _36
REMARK   14  A    between atoms: _38  and  _40
REMARK   15  A    between atoms: _40  and  _41
REMARK   16  A    between atoms: _40  and  _43
REMARK   17  A    between atoms: _43  and  _44
REMARK   18  A    between atoms: _44  and  _45
REMARK   19  A    between atoms: _45  and  _46
REMARK   20  A    between atoms: _46  and  _47
REMARK   21  A    between atoms: _51  and  _53
REMARK   22  A    between atoms: _53  and  _54
REMARK   23  A    between atoms: _53  and  _56
REMARK   24  A    between atoms: _59  and  _61
REMARK   25  A    between atoms: _61  and  _62
REMARK   26  A    between atoms: _61  and  _64
REMARK   27  A    between atoms: _64  and  _65
REMARK   28  A    between atoms: _71  and  _73
REMARK   29  A    between atoms: _73  and  _74
REMARK   30  A    between atoms: _73  and  _76
REMARK   31  A    between atoms: _76  and  _77
REMARK   32  A    between atoms: _77  and  _78
REMARK   33  A    between atoms: _78  and  _79
REMARK   34  A    between atoms: _88  and  _90
REMARK   35  A    between atoms: _90  and  _91
REMARK   36  A    between atoms: _93  and  _95
REMARK   37  A    between atoms: _95  and  _96
REMARK   38  A    between atoms: _95  and  _98
REMARK   39  A    between atoms: _98  and  _99
REMARK   40  A    between atoms: _99  and  _100
REMARK   41  A    between atoms: _100  and  _101
REMARK   42  A    between atoms: _101  and  _102
REMARK   43  A    between atoms: _106  and  _108
REMARK   44  A    between atoms: _108  and  _109
REMARK   45  A    between atoms: _108  and  _111
REMARK   46  A    between atoms: _111  and  _112
REMARK   47  A    between atoms: _117  and  _118
REMARK   48  A    between atoms: _120  and  _122
REMARK   49  A    between atoms: _122  and  _123
REMARK   50  A    between atoms: _122  and  _125
REMARK   51  A    between atoms: _125  and  _126
REMARK   52  A    between atoms: _126  and  _127
REMARK   53  A    between atoms: _132  and  _134
REMARK   54  A    between atoms: _134  and  _135
REMARK   55  A    between atoms: _134  and  _137
REMARK   56  A    between atoms: _137  and  _138
REMARK   57  A    between atoms: _138  and  _139
REMARK   58  A    between atoms: _139  and  _140
REMARK   59  A    between atoms: _149  and  _151
REMARK   60  A    between atoms: _151  and  _152
REMARK   61  A    between atoms: _154  and  _156
REMARK   62  A    between atoms: _156  and  _157
REMARK   63  A    between atoms: _156  and  _159
REMARK   64  A    between atoms: _159  and  _160
REMARK   65  A    between atoms: _165  and  _167
REMARK   66  A    between atoms: _167  and  _168
REMARK   67  A    between atoms: _167  and  _170
REMARK   68  A    between atoms: _170  and  _171
REMARK   69  A    between atoms: _174  and  _176
REMARK   70  A    between atoms: _176  and  _177
REMARK   71  A    between atoms: _176  and  _179
REMARK   72  A    between atoms: _179  and  _180
REMARK   73  A    between atoms: _183  and  _185
REMARK   74  A    between atoms: _185  and  _186
REMARK   75  A    between atoms: _185  and  _188
REMARK   76  A    between atoms: _188  and  _189
REMARK   77  A    between atoms: _194  and  _196
REMARK   78  A    between atoms: _196  and  _197
REMARK   79  A    between atoms: _196  and  _199
REMARK   80  A    between atoms: _199  and  _200
REMARK   81  A    between atoms: _203  and  _205
REMARK   82  A    between atoms: _205  and  _206
REMARK   83  A    between atoms: _205  and  _208
REMARK   84  A    between atoms: _208  and  _209
REMARK   85  A    between atoms: _214  and  _216
REMARK   86  A    between atoms: _216  and  _217
REMARK   87  A    between atoms: _219  and  _221
REMARK   88  A    between atoms: _221  and  _222
REMARK   89  A    between atoms: _224  and  _226
REMARK   90  A    between atoms: _226  and  _227
REMARK   91  A    between atoms: _226  and  _229
REMARK   92  A    between atoms: _229  and  _230
REMARK   93  A    between atoms: _234  and  ZN_1038
REMARK   94  A    between atoms: _235  and  _237
REMARK   95  A    between atoms: _237  and  _238
REMARK   96  A    between atoms: _237  and  _240
REMARK   97  A    between atoms: _240  and  _241
REMARK   98  A    between atoms: _244  and  _246
REMARK   99  A    between atoms: _246  and  _247
REMARK  100  A    between atoms: _246  and  _249
REMARK  101  A    between atoms: _249  and  _250
REMARK  102  A    between atoms: _260  and  _262
REMARK  103  A    between atoms: _262  and  _263
REMARK  104  A    between atoms: _262  and  _265
REMARK  105  A    between atoms: _265  and  _266
REMARK  106  A    between atoms: _269  and  _271
REMARK  107  A    between atoms: _271  and  _272
REMARK  108  A    between atoms: _271  and  _274
REMARK  109  A    between atoms: _274  and  _275
REMARK  110  A    between atoms: _279  and  _280
REMARK  111  A    between atoms: _285  and  _287
REMARK  112  A    between atoms: _287  and  _288
REMARK  113  A    between atoms: _291  and  _293
REMARK  114  A    between atoms: _293  and  _294
REMARK  115  A    between atoms: _293  and  _296
REMARK  116  A    between atoms: _296  and  _297
REMARK  117  A    between atoms: _297  and  _298
REMARK  118  A    between atoms: _301  and  _303
REMARK  119  A    between atoms: _303  and  _304
REMARK  120  A    between atoms: _303  and  _306
REMARK  121  A    between atoms: _306  and  _307
REMARK  122  A    between atoms: _307  and  _308
REMARK  123  A    between atoms: _308  and  _310
REMARK  124  A    between atoms: _310  and  ZN_1037
REMARK  125  A    between atoms: _311  and  _313
REMARK  126  A    between atoms: _313  and  _314
REMARK  127  A    between atoms: _313  and  _316
REMARK  128  A    between atoms: _316  and  _317
REMARK  129  A    between atoms: _323  and  _325
REMARK  130  A    between atoms: _325  and  _326
REMARK  131  A    between atoms: _328  and  _330
REMARK  132  A    between atoms: _330  and  _331
REMARK  133  A    between atoms: _330  and  _333
REMARK  134  A    between atoms: _333  and  _334
REMARK  135  A    between atoms: _337  and  _339
REMARK  136  A    between atoms: _339  and  _340
REMARK  137  A    between atoms: _339  and  _342
REMARK  138  A    between atoms: _342  and  _343
REMARK  139  A    between atoms: _346  and  _348
REMARK  140  A    between atoms: _348  and  _349
REMARK  141  A    between atoms: _348  and  _351
REMARK  142  A    between atoms: _351  and  _352
REMARK  143  A    between atoms: _357  and  _359
REMARK  144  A    between atoms: _359  and  _360
REMARK  145  A    between atoms: _359  and  _362
REMARK  146  A    between atoms: _362  and  _363
REMARK  147  A    between atoms: _363  and  _365
REMARK  148  A    between atoms: _365  and  ZN_1038
REMARK  149  A    between atoms: _366  and  _368
REMARK  150  A    between atoms: _368  and  _369
REMARK  151  A    between atoms: _368  and  _371
REMARK  152  A    between atoms: _371  and  _372
REMARK  153  A    between atoms: _374  and  _376
REMARK  154  A    between atoms: _376  and  _377
REMARK  155  A    between atoms: _376  and  _379
REMARK  156  A    between atoms: _379  and  _380
REMARK  157  A    between atoms: _382  and  _384
REMARK  158  A    between atoms: _384  and  _385
REMARK  159  A    between atoms: _384  and  _387
REMARK  160  A    between atoms: _387  and  _388
REMARK  161  A    between atoms: _391  and  _393
REMARK  162  A    between atoms: _393  and  _394
REMARK  163  A    between atoms: _393  and  _396
REMARK  164  A    between atoms: _396  and  _397
REMARK  165  A    between atoms: _397  and  _398
REMARK  166  A    between atoms: _401  and  _403
REMARK  167  A    between atoms: _403  and  _404
REMARK  168  A    between atoms: _403  and  _406
REMARK  169  A    between atoms: _406  and  _407
REMARK  170  A    between atoms: _412  and  _413
REMARK  171  A    between atoms: _415  and  _417
REMARK  172  A    between atoms: _417  and  _418
REMARK  173  A    between atoms: _417  and  _420
REMARK  174  A    between atoms: _420  and  _421
REMARK  175  A    between atoms: _424  and  _426
REMARK  176  A    between atoms: _426  and  _427
REMARK  177  A    between atoms: _426  and  _429
REMARK  178  A    between atoms: _429  and  _430
REMARK  179  A    between atoms: _433  and  _435
REMARK  180  A    between atoms: _435  and  _436
REMARK  181  A    between atoms: _435  and  _438
REMARK  182  A    between atoms: _438  and  _439
REMARK  183  A    between atoms: _439  and  _440
REMARK  184  A    between atoms: _440  and  _441
REMARK  185  A    between atoms: _450  and  _452
REMARK  186  A    between atoms: _452  and  _453
REMARK  187  A    between atoms: _452  and  _455
REMARK  188  A    between atoms: _458  and  _460
REMARK  189  A    between atoms: _460  and  _461
REMARK  190  A    between atoms: _460  and  _463
REMARK  191  A    between atoms: _463  and  _464
REMARK  192  A    between atoms: _467  and  _469
REMARK  193  A    between atoms: _469  and  _470
REMARK  194  A    between atoms: _469  and  _472
REMARK  195  A    between atoms: _474  and  _476
REMARK  196  A    between atoms: _476  and  _477
REMARK  197  A    between atoms: _476  and  _479
REMARK  198  A    between atoms: _479  and  _480
REMARK  199  A    between atoms: _490  and  _492
REMARK  200  A    between atoms: _492  and  _493
REMARK  201  A    between atoms: _492  and  _495
REMARK  202  A    between atoms: _495  and  _496
REMARK  203  A    between atoms: _496  and  _497
REMARK  204  A    between atoms: _497  and  _498
REMARK  205  A    between atoms: _498  and  _499
REMARK  206  A    between atoms: _503  and  _505
REMARK  207  A    between atoms: _505  and  _506
REMARK  208  A    between atoms: _505  and  _508
REMARK  209  A    between atoms: _508  and  _509
REMARK  210  A    between atoms: _512  and  _513
REMARK  211  A    between atoms: _519  and  _520
REMARK  212  A    between atoms: _525  and  _527
REMARK  213  A    between atoms: _527  and  _528
REMARK  214  A    between atoms: _527  and  _530
REMARK  215  A    between atoms: _530  and  _531
REMARK  216  A    between atoms: _531  and  _532
REMARK  217  A    between atoms: _535  and  _537
REMARK  218  A    between atoms: _537  and  _538
REMARK  219  A    between atoms: _537  and  _540
REMARK  220  A    between atoms: _540  and  _541
REMARK  221  A    between atoms: _541  and  _542
REMARK  222  A    between atoms: _542  and  _543
REMARK  223  A    between atoms: _552  and  _554
REMARK  224  A    between atoms: _554  and  _555
REMARK  225  A    between atoms: _554  and  _557
REMARK  226  A    between atoms: _557  and  _558
REMARK  227  A    between atoms: _561  and  _563
REMARK  228  A    between atoms: _563  and  _564
REMARK  229  A    between atoms: _563  and  _566
REMARK  230  A    between atoms: _566  and  _567
REMARK  231  A    between atoms: _569  and  _571
REMARK  232  A    between atoms: _571  and  _572
REMARK  233  A    between atoms: _571  and  _574
REMARK  234  A    between atoms: _574  and  _575
REMARK  235  A    between atoms: _575  and  _576
REMARK  236  A    between atoms: _576  and  _577
REMARK  237  A    between atoms: _577  and  _578
REMARK  238  A    between atoms: _582  and  _584
REMARK  239  A    between atoms: _584  and  _585
REMARK  240  A    between atoms: _584  and  _587
REMARK  241  A    between atoms: _587  and  _588
REMARK  242  A    between atoms: _591  and  _593
REMARK  243  A    between atoms: _593  and  _594
REMARK  244  A    between atoms: _596  and  _598
REMARK  245  A    between atoms: _598  and  _599
REMARK  246  A    between atoms: _598  and  _601
REMARK  247  A    between atoms: _601  and  _602
REMARK  248  A    between atoms: _604  and  _606
REMARK  249  A    between atoms: _606  and  _607
REMARK  250  A    between atoms: _609  and  _611
REMARK  251  A    between atoms: _611  and  _612
REMARK  252  A    between atoms: _611  and  _614
REMARK  253  A    between atoms: _614  and  _615
REMARK  254  A    between atoms: _620  and  _622
REMARK  255  A    between atoms: _622  and  _623
REMARK  256  A    between atoms: _622  and  _625
REMARK  257  A    between atoms: _625  and  _626
REMARK  258  A    between atoms: _629  and  _631
REMARK  259  A    between atoms: _631  and  _632
REMARK  260  A    between atoms: _631  and  _634
REMARK  261  A    between atoms: _634  and  _635
REMARK  262  A    between atoms: _641  and  _643
REMARK  263  A    between atoms: _643  and  _644
REMARK  264  A    between atoms: _643  and  _646
REMARK  265  A    between atoms: _646  and  _647
REMARK  266  A    between atoms: _647  and  _648
REMARK  267  A    between atoms: _651  and  _653
REMARK  268  A    between atoms: _653  and  _654
REMARK  269  A    between atoms: _653  and  _656
REMARK  270  A    between atoms: _656  and  _657
REMARK  271  A    between atoms: _657  and  _658
REMARK  272  A    between atoms: _663  and  _665
REMARK  273  A    between atoms: _665  and  _666
REMARK  274  A    between atoms: _665  and  _668
REMARK  275  A    between atoms: _668  and  _669
REMARK  276  A    between atoms: _669  and  _670
REMARK  277  A    between atoms: _670  and  _671
REMARK  278  A    between atoms: _680  and  _682
REMARK  279  A    between atoms: _682  and  _683
REMARK  280  A    between atoms: _682  and  _685
REMARK  281  A    between atoms: _685  and  _686
REMARK  282  A    between atoms: _686  and  _687
REMARK  283  A    between atoms: _687  and  _688
REMARK  284  A    between atoms: _697  and  _699
REMARK  285  A    between atoms: _699  and  _700
REMARK  286  A    between atoms: _699  and  _702
REMARK  287  A    between atoms: _702  and  _703
REMARK  288  A    between atoms: _708  and  _709
REMARK  289  A    between atoms: _711  and  _713
REMARK  290  A    between atoms: _713  and  _714
REMARK  291  A    between atoms: _713  and  _716
REMARK  292  A    between atoms: _716  and  _717
REMARK  293  A    between atoms: _720  and  _722
REMARK  294  A    between atoms: _722  and  _723
REMARK  295  A    between atoms: _722  and  _725
REMARK  296  A    between atoms: _725  and  _726
REMARK  297  A    between atoms: _726  and  _727
REMARK  298  A    between atoms: _727  and  _728
REMARK  299  A    between atoms: _728  and  _729
REMARK  300  A    between atoms: _733  and  _735
REMARK  301  A    between atoms: _735  and  _736
REMARK  302  A    between atoms: _735  and  _738
REMARK  303  A    between atoms: _738  and  _739
REMARK  304  A    between atoms: _744  and  _746
REMARK  305  A    between atoms: _746  and  _747
REMARK  306  A    between atoms: _746  and  _749
REMARK  307  A    between atoms: _749  and  _750
REMARK  308  A    between atoms: _760  and  _762
REMARK  309  A    between atoms: _762  and  _763
REMARK  310  A    between atoms: _762  and  _765
REMARK  311  A    between atoms: _765  and  _766
REMARK  312  A    between atoms: _766  and  _767
REMARK  313  A    between atoms: _770  and  _772
REMARK  314  A    between atoms: _772  and  _773
REMARK  315  A    between atoms: _772  and  _775
REMARK  316  A    between atoms: _775  and  _776
REMARK  317  A    between atoms: _779  and  _781
REMARK  318  A    between atoms: _781  and  _782
REMARK  319  A    between atoms: _781  and  _784
REMARK  320  A    between atoms: _784  and  _785
REMARK  321  A    between atoms: _790  and  _792
REMARK  322  A    between atoms: _792  and  _793
REMARK  323  A    between atoms: _792  and  _795
REMARK  324  A    between atoms: _795  and  _796
REMARK  325  A    between atoms: _802  and  _804
REMARK  326  A    between atoms: _804  and  _805
REMARK  327  A    between atoms: _804  and  _807
REMARK  328  A    between atoms: _807  and  _808
REMARK  329  A    between atoms: _810  and  _812
REMARK  330  A    between atoms: _812  and  _813
REMARK  331  A    between atoms: _815  and  _817
REMARK  332  A    between atoms: _817  and  _818
REMARK  333  A    between atoms: _817  and  _820
REMARK  334  A    between atoms: _820  and  _821
REMARK  335  A    between atoms: _826  and  _827
REMARK  336  A    between atoms: _829  and  _831
REMARK  337  A    between atoms: _831  and  _832
REMARK  338  A    between atoms: _831  and  _834
REMARK  339  A    between atoms: _834  and  _835
REMARK  340  A    between atoms: _840  and  _841
REMARK  341  A    between atoms: _843  and  _845
REMARK  342  A    between atoms: _845  and  _846
REMARK  343  A    between atoms: _845  and  _848
REMARK  344  A    between atoms: _848  and  _849
REMARK  345  A    between atoms: _853  and  ZN_1037
REMARK  346  A    between atoms: _854  and  _856
REMARK  347  A    between atoms: _856  and  _857
REMARK  348  A    between atoms: _856  and  _859
REMARK  349  A    between atoms: _859  and  _860
REMARK  350  A    between atoms: _860  and  _861
REMARK  351  A    between atoms: _864  and  _866
REMARK  352  A    between atoms: _866  and  _867
REMARK  353  A    between atoms: _866  and  _869
REMARK  354  A    between atoms: _869  and  _870
REMARK  355  A    between atoms: _870  and  _871
REMARK  356  A    between atoms: _871  and  _872
REMARK  357  A    between atoms: _881  and  _883
REMARK  358  A    between atoms: _883  and  _884
REMARK  359  A    between atoms: _883  and  _886
REMARK  360  A    between atoms: _886  and  _887
REMARK  361  A    between atoms: _887  and  _888
REMARK  362  A    between atoms: _888  and  _889
REMARK  363  A    between atoms: _889  and  _890
REMARK  364  A    between atoms: _894  and  _896
REMARK  365  A    between atoms: _896  and  _897
REMARK  366  A    between atoms: _896  and  _899
REMARK  367  A    between atoms: _899  and  _900
REMARK  368  A    between atoms: _905  and  _906
REMARK  369  A    between atoms: _908  and  _910
REMARK  370  A    between atoms: _910  and  _911
REMARK  371  A    between atoms: _910  and  _913
REMARK  372  A    between atoms: _913  and  _914
REMARK  373  A    between atoms: _914  and  _915
REMARK  374  A    between atoms: _915  and  _916
REMARK  375  A    between atoms: _916  and  _917
REMARK  376  A    between atoms: _921  and  _923
REMARK  377  A    between atoms: _923  and  _924
REMARK  378  A    between atoms: _923  and  _926
REMARK  379  A    between atoms: _926  and  _927
REMARK  380  A    between atoms: _932  and  _933
REMARK  381  A    between atoms: _935  and  _937
REMARK  382  A    between atoms: _937  and  _938
REMARK  383  A    between atoms: _937  and  _940
REMARK  384  A    between atoms: _940  and  _941
REMARK  385  A    between atoms: _946  and  _947
REMARK  386  A    between atoms: _949  and  _951
REMARK  387  A    between atoms: _951  and  _952
REMARK  388  A    between atoms: _956  and  _957
REMARK  389  A    between atoms: _962  and  _964
REMARK  390  A    between atoms: _964  and  _965
REMARK  391  A    between atoms: _964  and  _967
REMARK  392  A    between atoms: _967  and  _968
REMARK  393  A    between atoms: _970  and  _972
REMARK  394  A    between atoms: _972  and  _973
REMARK  395  A    between atoms: _972  and  _975
REMARK  396  A    between atoms: _975  and  _976
REMARK  397  A    between atoms: _981  and  _983
REMARK  398  A    between atoms: _983  and  _984
REMARK  399  A    between atoms: _983  and  _986
REMARK  400  A    between atoms: _986  and  _987
REMARK  401  A    between atoms: _987  and  _988
REMARK  402  A    between atoms: _988  and  _989
REMARK  403  A    between atoms: _989  and  _990
REMARK  404  A    between atoms: _994  and  _996
REMARK  405  A    between atoms: _996  and  _997
REMARK  406  A    between atoms: _996  and  _999
REMARK  407  A    between atoms: _999  and  _1000
REMARK  408  A    between atoms: _1005  and  _1006
REMARK  409  A    between atoms: _1008  and  _1010
REMARK  410  A    between atoms: _1010  and  _1011
REMARK  411  A    between atoms: _1014  and  _1016
REMARK  412  A    between atoms: _1016  and  _1017
REMARK  413  A    between atoms: _1019  and  _1021
REMARK  414  A    between atoms: _1021  and  _1022
REMARK  415  A    between atoms: _1021  and  _1024
REMARK  416  A    between atoms: _1024  and  _1025
REMARK  417  A    between atoms: _1025  and  _1026
REMARK  418  A    between atoms: _1029  and  _1031
REMARK  419  A    between atoms: _1031  and  _1032
REMARK  420  A    between atoms: _1031  and  _1034
REMARK  421  A    between atoms: _1034  and  _1035
REMARK                            x       y       z     vdW  Elec       q    Type
REMARK                         _______ _______ _______ _____ _____    ______ ____
ROOT
ATOM      1  O   HOH     1      20.771  53.073  47.324  0.00  0.00    +0.000 OA
ENDROOT
TORSDOF 0
REMARK  Name = ../refined-set-2016/2xef/2xef_pocket.pdb
REMARK  421 active torsions:
REMARK  status: ('A' for Active; 'I' for Inactive)
REMARK    1  A    between atoms: _1  and  _3
REMARK    2  A    between atoms: _3  and  _4
REMARK    3  A    between atoms: _7  and  _9
REMARK    4  A    between atoms: _9  and  _10
REMARK    5  A    between atoms: _9  and  _12
REMARK    6  A    between atoms: _12  and  _13
REMARK    7  A    between atoms: _19  and  _21
REMARK    8  A    between atoms: _21  and  _22
REMARK    9  A    between atoms: _21  and  _24
REMARK   10  A    between atoms: _24  and  _25
REMARK   11  A    between atoms: _30  and  _31
REMARK   12  A    between atoms: _33  and  _35
REMARK   13  A    between atoms: _35  and  _36
REMARK   14  A    between atoms: _38  and  _40
REMARK   15  A    between atoms: _40  and  _41
REMARK   16  A    between atoms: _40  and  _43
REMARK   17  A    between atoms: _43  and  _44
REMARK   18  A    between atoms: _44  and  _45
REMARK   19  A    between atoms: _45  and  _46
REMARK   20  A    between atoms: _46  and  _47
REMARK   21  A    between atoms: _51  and  _53
REMARK   22  A    between atoms: _53  and  _54
REMARK   23  A    between atoms: _53  and  _56
REMARK   24  A    between atoms: _59  and  _61
REMARK   25  A    between atoms: _61  and  _62
REMARK   26  A    between atoms: _61  and  _64
REMARK   27  A    between atoms: _64  and  _65
REMARK   28  A    between atoms: _71  and  _73
REMARK   29  A    between atoms: _73  and  _74
REMARK   30  A    between atoms: _73  and  _76
REMARK   31  A    between atoms: _76  and  _77
REMARK   32  A    between atoms: _77  and  _78
REMARK   33  A    between atoms: _78  and  _79
REMARK   34  A    between atoms: _88  and  _90
REMARK   35  A    between atoms: _90  and  _91
REMARK   36  A    between atoms: _93  and  _95
REMARK   37  A    between atoms: _95  and  _96
REMARK   38  A    between atoms: _95  and  _98
REMARK   39  A    between atoms: _98  and  _99
REMARK   40  A    between atoms: _99  and  _100
REMARK   41  A    between atoms: _100  and  _101
REMARK   42  A    between atoms: _101  and  _102
REMARK   43  A    between atoms: _106  and  _108
REMARK   44  A    between atoms: _108  and  _109
REMARK   45  A    between atoms: _108  and  _111
REMARK   46  A    between atoms: _111  and  _112
REMARK   47  A    between atoms: _117  and  _118
REMARK   48  A    between atoms: _120  and  _122
REMARK   49  A    between atoms: _122  and  _123
REMARK   50  A    between atoms: _122  and  _125
REMARK   51  A    between atoms: _125  and  _126
REMARK   52  A    between atoms: _126  and  _127
REMARK   53  A    between atoms: _132  and  _134
REMARK   54  A    between atoms: _134  and  _135
REMARK   55  A    between atoms: _134  and  _137
REMARK   56  A    between atoms: _137  and  _138
REMARK   57  A    between atoms: _138  and  _139
REMARK   58  A    between atoms: _139  and  _140
REMARK   59  A    between atoms: _149  and  _151
REMARK   60  A    between atoms: _151  and  _152
REMARK   61  A    between atoms: _154  and  _156
REMARK   62  A    between atoms: _156  and  _157
REMARK   63  A    between atoms: _156  and  _159
REMARK   64  A    between atoms: _159  and  _160
REMARK   65  A    between atoms: _165  and  _167
REMARK   66  A    between atoms: _167  and  _168
REMARK   67  A    between atoms: _167  and  _170
REMARK   68  A    between atoms: _170  and  _171
REMARK   69  A    between atoms: _174  and  _176
REMARK   70  A    between atoms: _176  and  _177
REMARK   71  A    between atoms: _176  and  _179
REMARK   72  A    between atoms: _179  and  _180
REMARK   73  A    between atoms: _183  and  _185
REMARK   74  A    between atoms: _185  and  _186
REMARK   75  A    between atoms: _185  and  _188
REMARK   76  A    between atoms: _188  and  _189
REMARK   77  A    between atoms: _194  and  _196
REMARK   78  A    between atoms: _196  and  _197
REMARK   79  A    between atoms: _196  and  _199
REMARK   80  A    between atoms: _199  and  _200
REMARK   81  A    between atoms: _203  and  _205
REMARK   82  A    between atoms: _205  and  _206
REMARK   83  A    between atoms: _205  and  _208
REMARK   84  A    between atoms: _208  and  _209
REMARK   85  A    between atoms: _214  and  _216
REMARK   86  A    between atoms: _216  and  _217
REMARK   87  A    between atoms: _219  and  _221
REMARK   88  A    between atoms: _221  and  _222
REMARK   89  A    between atoms: _224  and  _226
REMARK   90  A    between atoms: _226  and  _227
REMARK   91  A    between atoms: _226  and  _229
REMARK   92  A    between atoms: _229  and  _230
REMARK   93  A    between atoms: _234  and  ZN_1038
REMARK   94  A    between atoms: _235  and  _237
REMARK   95  A    between atoms: _237  and  _238
REMARK   96  A    between atoms: _237  and  _240
REMARK   97  A    between atoms: _240  and  _241
REMARK   98  A    between atoms: _244  and  _246
REMARK   99  A    between atoms: _246  and  _247
REMARK  100  A    between atoms: _246  and  _249
REMARK  101  A    between atoms: _249  and  _250
REMARK  102  A    between atoms: _260  and  _262
REMARK  103  A    between atoms: _262  and  _263
REMARK  104  A    between atoms: _262  and  _265
REMARK  105  A    between atoms: _265  and  _266
REMARK  106  A    between atoms: _269  and  _271
REMARK  107  A    between atoms: _271  and  _272
REMARK  108  A    between atoms: _271  and  _274
REMARK  109  A    between atoms: _274  and  _275
REMARK  110  A    between atoms: _279  and  _280
REMARK  111  A    between atoms: _285  and  _287
REMARK  112  A    between atoms: _287  and  _288
REMARK  113  A    between atoms: _291  and  _293
REMARK  114  A    between atoms: _293  and  _294
REMARK  115  A    between atoms: _293  and  _296
REMARK  116  A    between atoms: _296  and  _297
REMARK  117  A    between atoms: _297  and  _298
REMARK  118  A    between atoms: _301  and  _303
REMARK  119  A    between atoms: _303  and  _304
REMARK  120  A    between atoms: _303  and  _306
REMARK  121  A    between atoms: _306  and  _307
REMARK  122  A    between atoms: _307  and  _308
REMARK  123  A    between atoms: _308  and  _310
REMARK  124  A    between atoms: _310  and  ZN_1037
REMARK  125  A    between atoms: _311  and  _313
REMARK  126  A    between atoms: _313  and  _314
REMARK  127  A    between atoms: _313  and  _316
REMARK  128  A    between atoms: _316  and  _317
REMARK  129  A    between atoms: _323  and  _325
REMARK  130  A    between atoms: _325  and  _326
REMARK  131  A    between atoms: _328  and  _330
REMARK  132  A    between atoms: _330  and  _331
REMARK  133  A    between atoms: _330  and  _333
REMARK  134  A    between atoms: _333  and  _334
REMARK  135  A    between atoms: _337  and  _339
REMARK  136  A    between atoms: _339  and  _340
REMARK  137  A    between atoms: _339  and  _342
REMARK  138  A    between atoms: _342  and  _343
REMARK  139  A    between atoms: _346  and  _348
REMARK  140  A    between atoms: _348  and  _349
REMARK  141  A    between atoms: _348  and  _351
REMARK  142  A    between atoms: _351  and  _352
REMARK  143  A    between atoms: _357  and  _359
REMARK  144  A    between atoms: _359  and  _360
REMARK  145  A    between atoms: _359  and  _362
REMARK  146  A    between atoms: _362  and  _363
REMARK  147  A    between atoms: _363  and  _365
REMARK  148  A    between atoms: _365  and  ZN_1038
REMARK  149  A    between atoms: _366  and  _368
REMARK  150  A    between atoms: _368  and  _369
REMARK  151  A    between atoms: _368  and  _371
REMARK  152  A    between atoms: _371  and  _372
REMARK  153  A    between atoms: _374  and  _376
REMARK  154  A    between atoms: _376  and  _377
REMARK  155  A    between atoms: _376  and  _379
REMARK  156  A    between atoms: _379  and  _380
REMARK  157  A    between atoms: _382  and  _384
REMARK  158  A    between atoms: _384  and  _385
REMARK  159  A    between atoms: _384  and  _387
REMARK  160  A    between atoms: _387  and  _388
REMARK  161  A    between atoms: _391  and  _393
REMARK  162  A    between atoms: _393  and  _394
REMARK  163  A    between atoms: _393  and  _396
REMARK  164  A    between atoms: _396  and  _397
REMARK  165  A    between atoms: _397  and  _398
REMARK  166  A    between atoms: _401  and  _403
REMARK  167  A    between atoms: _403  and  _404
REMARK  168  A    between atoms: _403  and  _406
REMARK  169  A    between atoms: _406  and  _407
REMARK  170  A    between atoms: _412  and  _413
REMARK  171  A    between atoms: _415  and  _417
REMARK  172  A    between atoms: _417  and  _418
REMARK  173  A    between atoms: _417  and  _420
REMARK  174  A    between atoms: _420  and  _421
REMARK  175  A    between atoms: _424  and  _426
REMARK  176  A    between atoms: _426  and  _427
REMARK  177  A    between atoms: _426  and  _429
REMARK  178  A    between atoms: _429  and  _430
REMARK  179  A    between atoms: _433  and  _435
REMARK  180  A    between atoms: _435  and  _436
REMARK  181  A    between atoms: _435  and  _438
REMARK  182  A    between atoms: _438  and  _439
REMARK  183  A    between atoms: _439  and  _440
REMARK  184  A    between atoms: _440  and  _441
REMARK  185  A    between atoms: _450  and  _452
REMARK  186  A    between atoms: _452  and  _453
REMARK  187  A    between atoms: _452  and  _455
REMARK  188  A    between atoms: _458  and  _460
REMARK  189  A    between atoms: _460  and  _461
REMARK  190  A    between atoms: _460  and  _463
REMARK  191  A    between atoms: _463  and  _464
REMARK  192  A    between atoms: _467  and  _469
REMARK  193  A    between atoms: _469  and  _470
REMARK  194  A    between atoms: _469  and  _472
REMARK  195  A    between atoms: _474  and  _476
REMARK  196  A    between atoms: _476  and  _477
REMARK  197  A    between atoms: _476  and  _479
REMARK  198  A    between atoms: _479  and  _480
REMARK  199  A    between atoms: _490  and  _492
REMARK  200  A    between atoms: _492  and  _493
REMARK  201  A    between atoms: _492  and  _495
REMARK  202  A    between atoms: _495  and  _496
REMARK  203  A    between atoms: _496  and  _497
REMARK  204  A    between atoms: _497  and  _498
REMARK  205  A    between atoms: _498  and  _499
REMARK  206  A    between atoms: _503  and  _505
REMARK  207  A    between atoms: _505  and  _506
REMARK  208  A    between atoms: _505  and  _508
REMARK  209  A    between atoms: _508  and  _509
REMARK  210  A    between atoms: _512  and  _513
REMARK  211  A    between atoms: _519  and  _520
REMARK  212  A    between atoms: _525  and  _527
REMARK  213  A    between atoms: _527  and  _528
REMARK  214  A    between atoms: _527  and  _530
REMARK  215  A    between atoms: _530  and  _531
REMARK  216  A    between atoms: _531  and  _532
REMARK  217  A    between atoms: _535  and  _537
REMARK  218  A    between atoms: _537  and  _538
REMARK  219  A    between atoms: _537  and  _540
REMARK  220  A    between atoms: _540  and  _541
REMARK  221  A    between atoms: _541  and  _542
REMARK  222  A    between atoms: _542  and  _543
REMARK  223  A    between atoms: _552  and  _554
REMARK  224  A    between atoms: _554  and  _555
REMARK  225  A    between atoms: _554  and  _557
REMARK  226  A    between atoms: _557  and  _558
REMARK  227  A    between atoms: _561  and  _563
REMARK  228  A    between atoms: _563  and  _564
REMARK  229  A    between atoms: _563  and  _566
REMARK  230  A    between atoms: _566  and  _567
REMARK  231  A    between atoms: _569  and  _571
REMARK  232  A    between atoms: _571  and  _572
REMARK  233  A    between atoms: _571  and  _574
REMARK  234  A    between atoms: _574  and  _575
REMARK  235  A    between atoms: _575  and  _576
REMARK  236  A    between atoms: _576  and  _577
REMARK  237  A    between atoms: _577  and  _578
REMARK  238  A    between atoms: _582  and  _584
REMARK  239  A    between atoms: _584  and  _585
REMARK  240  A    between atoms: _584  and  _587
REMARK  241  A    between atoms: _587  and  _588
REMARK  242  A    between atoms: _591  and  _593
REMARK  243  A    between atoms: _593  and  _594
REMARK  244  A    between atoms: _596  and  _598
REMARK  245  A    between atoms: _598  and  _599
REMARK  246  A    between atoms: _598  and  _601
REMARK  247  A    between atoms: _601  and  _602
REMARK  248  A    between atoms: _604  and  _606
REMARK  249  A    between atoms: _606  and  _607
REMARK  250  A    between atoms: _609  and  _611
REMARK  251  A    between atoms: _611  and  _612
REMARK  252  A    between atoms: _611  and  _614
REMARK  253  A    between atoms: _614  and  _615
REMARK  254  A    between atoms: _620  and  _622
REMARK  255  A    between atoms: _622  and  _623
REMARK  256  A    between atoms: _622  and  _625
REMARK  257  A    between atoms: _625  and  _626
REMARK  258  A    between atoms: _629  and  _631
REMARK  259  A    between atoms: _631  and  _632
REMARK  260  A    between atoms: _631  and  _634
REMARK  261  A    between atoms: _634  and  _635
REMARK  262  A    between atoms: _641  and  _643
REMARK  263  A    between atoms: _643  and  _644
REMARK  264  A    between atoms: _643  and  _646
REMARK  265  A    between atoms: _646  and  _647
REMARK  266  A    between atoms: _647  and  _648
REMARK  267  A    between atoms: _651  and  _653
REMARK  268  A    between atoms: _653  and  _654
REMARK  269  A    between atoms: _653  and  _656
REMARK  270  A    between atoms: _656  and  _657
REMARK  271  A    between atoms: _657  and  _658
REMARK  272  A    between atoms: _663  and  _665
REMARK  273  A    between atoms: _665  and  _666
REMARK  274  A    between atoms: _665  and  _668
REMARK  275  A    between atoms: _668  and  _669
REMARK  276  A    between atoms: _669  and  _670
REMARK  277  A    between atoms: _670  and  _671
REMARK  278  A    between atoms: _680  and  _682
REMARK  279  A    between atoms: _682  and  _683
REMARK  280  A    between atoms: _682  and  _685
REMARK  281  A    between atoms: _685  and  _686
REMARK  282  A    between atoms: _686  and  _687
REMARK  283  A    between atoms: _687  and  _688
REMARK  284  A    between atoms: _697  and  _699
REMARK  285  A    between atoms: _699  and  _700
REMARK  286  A    between atoms: _699  and  _702
REMARK  287  A    between atoms: _702  and  _703
REMARK  288  A    between atoms: _708  and  _709
REMARK  289  A    between atoms: _711  and  _713
REMARK  290  A    between atoms: _713  and  _714
REMARK  291  A    between atoms: _713  and  _716
REMARK  292  A    between atoms: _716  and  _717
REMARK  293  A    between atoms: _720  and  _722
REMARK  294  A    between atoms: _722  and  _723
REMARK  295  A    between atoms: _722  and  _725
REMARK  296  A    between atoms: _725  and  _726
REMARK  297  A    between atoms: _726  and  _727
REMARK  298  A    between atoms: _727  and  _728
REMARK  299  A    between atoms: _728  and  _729
REMARK  300  A    between atoms: _733  and  _735
REMARK  301  A    between atoms: _735  and  _736
REMARK  302  A    between atoms: _735  and  _738
REMARK  303  A    between atoms: _738  and  _739
REMARK  304  A    between atoms: _744  and  _746
REMARK  305  A    between atoms: _746  and  _747
REMARK  306  A    between atoms: _746  and  _749
REMARK  307  A    between atoms: _749  and  _750
REMARK  308  A    between atoms: _760  and  _762
REMARK  309  A    between atoms: _762  and  _763
REMARK  310  A    between atoms: _762  and  _765
REMARK  311  A    between atoms: _765  and  _766
REMARK  312  A    between atoms: _766  and  _767
REMARK  313  A    between atoms: _770  and  _772
REMARK  314  A    between atoms: _772  and  _773
REMARK  315  A    between atoms: _772  and  _775
REMARK  316  A    between atoms: _775  and  _776
REMARK  317  A    between atoms: _779  and  _781
REMARK  318  A    between atoms: _781  and  _782
REMARK  319  A    between atoms: _781  and  _784
REMARK  320  A    between atoms: _784  and  _785
REMARK  321  A    between atoms: _790  and  _792
REMARK  322  A    between atoms: _792  and  _793
REMARK  323  A    between atoms: _792  and  _795
REMARK  324  A    between atoms: _795  and  _796
REMARK  325  A    between atoms: _802  and  _804
REMARK  326  A    between atoms: _804  and  _805
REMARK  327  A    between atoms: _804  and  _807
REMARK  328  A    between atoms: _807  and  _808
REMARK  329  A    between atoms: _810  and  _812
REMARK  330  A    between atoms: _812  and  _813
REMARK  331  A    between atoms: _815  and  _817
REMARK  332  A    between atoms: _817  and  _818
REMARK  333  A    between atoms: _817  and  _820
REMARK  334  A    between atoms: _820  and  _821
REMARK  335  A    between atoms: _826  and  _827
REMARK  336  A    between atoms: _829  and  _831
REMARK  337  A    between atoms: _831  and  _832
REMARK  338  A    between atoms: _831  and  _834
REMARK  339  A    between atoms: _834  and  _835
REMARK  340  A    between atoms: _840  and  _841
REMARK  341  A    between atoms: _843  and  _845
REMARK  342  A    between atoms: _845  and  _846
REMARK  343  A    between atoms: _845  and  _848
REMARK  344  A    between atoms: _848  and  _849
REMARK  345  A    between atoms: _853  and  ZN_1037
REMARK  346  A    between atoms: _854  and  _856
REMARK  347  A    between atoms: _856  and  _857
REMARK  348  A    between atoms: _856  and  _859
REMARK  349  A    between atoms: _859  and  _860
REMARK  350  A    between atoms: _860  and  _861
REMARK  351  A    between atoms: _864  and  _866
REMARK  352  A    between atoms: _866  and  _867
REMARK  353  A    between atoms: _866  and  _869
REMARK  354  A    between atoms: _869  and  _870
REMARK  355  A    between atoms: _870  and  _871
REMARK  356  A    between atoms: _871  and  _872
REMARK  357  A    between atoms: _881  and  _883
REMARK  358  A    between atoms: _883  and  _884
REMARK  359  A    between atoms: _883  and  _886
REMARK  360  A    between atoms: _886  and  _887
REMARK  361  A    between atoms: _887  and  _888
REMARK  362  A    between atoms: _888  and  _889
REMARK  363  A    between atoms: _889  and  _890
REMARK  364  A    between atoms: _894  and  _896
REMARK  365  A    between atoms: _896  and  _897
REMARK  366  A    between atoms: _896  and  _899
REMARK  367  A    between atoms: _899  and  _900
REMARK  368  A    between atoms: _905  and  _906
REMARK  369  A    between atoms: _908  and  _910
REMARK  370  A    between atoms: _910  and  _911
REMARK  371  A    between atoms: _910  and  _913
REMARK  372  A    between atoms: _913  and  _914
REMARK  373  A    between atoms: _914  and  _915
REMARK  374  A    between atoms: _915  and  _916
REMARK  375  A    between atoms: _916  and  _917
REMARK  376  A    between atoms: _921  and  _923
REMARK  377  A    between atoms: _923  and  _924
REMARK  378  A    between atoms: _923  and  _926
REMARK  379  A    between atoms: _926  and  _927
REMARK  380  A    between atoms: _932  and  _933
REMARK  381  A    between atoms: _935  and  _937
REMARK  382  A    between atoms: _937  and  _938
REMARK  383  A    between atoms: _937  and  _940
REMARK  384  A    between atoms: _940  and  _941
REMARK  385  A    between atoms: _946  and  _947
REMARK  386  A    between atoms: _949  and  _951
REMARK  387  A    between atoms: _951  and  _952
REMARK  388  A    between atoms: _956  and  _957
REMARK  389  A    between atoms: _962  and  _964
REMARK  390  A    between atoms: _964  and  _965
REMARK  391  A    between atoms: _964  and  _967
REMARK  392  A    between atoms: _967  and  _968
REMARK  393  A    between atoms: _970  and  _972
REMARK  394  A    between atoms: _972  and  _973
REMARK  395  A    between atoms: _972  and  _975
REMARK  396  A    between atoms: _975  and  _976
REMARK  397  A    between atoms: _981  and  _983
REMARK  398  A    between atoms: _983  and  _984
REMARK  399  A    between atoms: _983  and  _986
REMARK  400  A    between atoms: _986  and  _987
REMARK  401  A    between atoms: _987  and  _988
REMARK  402  A    between atoms: _988  and  _989
REMARK  403  A    between atoms: _989  and  _990
REMARK  404  A    between atoms: _994  and  _996
REMARK  405  A    between atoms: _996  and  _997
REMARK  406  A    between atoms: _996  and  _999
REMARK  407  A    between atoms: _999  and  _1000
REMARK  408  A    between atoms: _1005  and  _1006
REMARK  409  A    between atoms: _1008  and  _1010
REMARK  410  A    between atoms: _1010  and  _1011
REMARK  411  A    between atoms: _1014  and  _1016
REMARK  412  A    between atoms: _1016  and  _1017
REMARK  413  A    between atoms: _1019  and  _1021
REMARK  414  A    between atoms: _1021  and  _1022
REMARK  415  A    between atoms: _1021  and  _1024
REMARK  416  A    between atoms: _1024  and  _1025
REMARK  417  A    between atoms: _1025  and  _1026
REMARK  418  A    between atoms: _1029  and  _1031
REMARK  419  A    between atoms: _1031  and  _1032
REMARK  420  A    between atoms: _1031  and  _1034
REMARK  421  A    between atoms: _1034  and  _1035
REMARK                            x       y       z     vdW  Elec       q    Type
REMARK                         _______ _______ _______ _____ _____    ______ ____
ROOT
ATOM      1  O   HOH     1      30.984  52.466  53.168  0.00  0.00    +0.000 OA
ENDROOT
TORSDOF 0
REMARK  Name = ../refined-set-2016/2xef/2xef_pocket.pdb
REMARK  421 active torsions:
REMARK  status: ('A' for Active; 'I' for Inactive)
REMARK    1  A    between atoms: _1  and  _3
REMARK    2  A    between atoms: _3  and  _4
REMARK    3  A    between atoms: _7  and  _9
REMARK    4  A    between atoms: _9  and  _10
REMARK    5  A    between atoms: _9  and  _12
REMARK    6  A    between atoms: _12  and  _13
REMARK    7  A    between atoms: _19  and  _21
REMARK    8  A    between atoms: _21  and  _22
REMARK    9  A    between atoms: _21  and  _24
REMARK   10  A    between atoms: _24  and  _25
REMARK   11  A    between atoms: _30  and  _31
REMARK   12  A    between atoms: _33  and  _35
REMARK   13  A    between atoms: _35  and  _36
REMARK   14  A    between atoms: _38  and  _40
REMARK   15  A    between atoms: _40  and  _41
REMARK   16  A    between atoms: _40  and  _43
REMARK   17  A    between atoms: _43  and  _44
REMARK   18  A    between atoms: _44  and  _45
REMARK   19  A    between atoms: _45  and  _46
REMARK   20  A    between atoms: _46  and  _47
REMARK   21  A    between atoms: _51  and  _53
REMARK   22  A    between atoms: _53  and  _54
REMARK   23  A    between atoms: _53  and  _56
REMARK   24  A    between atoms: _59  and  _61
REMARK   25  A    between atoms: _61  and  _62
REMARK   26  A    between atoms: _61  and  _64
REMARK   27  A    between atoms: _64  and  _65
REMARK   28  A    between atoms: _71  and  _73
REMARK   29  A    between atoms: _73  and  _74
REMARK   30  A    between atoms: _73  and  _76
REMARK   31  A    between atoms: _76  and  _77
REMARK   32  A    between atoms: _77  and  _78
REMARK   33  A    between atoms: _78  and  _79
REMARK   34  A    between atoms: _88  and  _90
REMARK   35  A    between atoms: _90  and  _91
REMARK   36  A    between atoms: _93  and  _95
REMARK   37  A    between atoms: _95  and  _96
REMARK   38  A    between atoms: _95  and  _98
REMARK   39  A    between atoms: _98  and  _99
REMARK   40  A    between atoms: _99  and  _100
REMARK   41  A    between atoms: _100  and  _101
REMARK   42  A    between atoms: _101  and  _102
REMARK   43  A    between atoms: _106  and  _108
REMARK   44  A    between atoms: _108  and  _109
REMARK   45  A    between atoms: _108  and  _111
REMARK   46  A    between atoms: _111  and  _112
REMARK   47  A    between atoms: _117  and  _118
REMARK   48  A    between atoms: _120  and  _122
REMARK   49  A    between atoms: _122  and  _123
REMARK   50  A    between atoms: _122  and  _125
REMARK   51  A    between atoms: _125  and  _126
REMARK   52  A    between atoms: _126  and  _127
REMARK   53  A    between atoms: _132  and  _134
REMARK   54  A    between atoms: _134  and  _135
REMARK   55  A    between atoms: _134  and  _137
REMARK   56  A    between atoms: _137  and  _138
REMARK   57  A    between atoms: _138  and  _139
REMARK   58  A    between atoms: _139  and  _140
REMARK   59  A    between atoms: _149  and  _151
REMARK   60  A    between atoms: _151  and  _152
REMARK   61  A    between atoms: _154  and  _156
REMARK   62  A    between atoms: _156  and  _157
REMARK   63  A    between atoms: _156  and  _159
REMARK   64  A    between atoms: _159  and  _160
REMARK   65  A    between atoms: _165  and  _167
REMARK   66  A    between atoms: _167  and  _168
REMARK   67  A    between atoms: _167  and  _170
REMARK   68  A    between atoms: _170  and  _171
REMARK   69  A    between atoms: _174  and  _176
REMARK   70  A    between atoms: _176  and  _177
REMARK   71  A    between atoms: _176  and  _179
REMARK   72  A    between atoms: _179  and  _180
REMARK   73  A    between atoms: _183  and  _185
REMARK   74  A    between atoms: _185  and  _186
REMARK   75  A    between atoms: _185  and  _188
REMARK   76  A    between atoms: _188  and  _189
REMARK   77  A    between atoms: _194  and  _196
REMARK   78  A    between atoms: _196  and  _197
REMARK   79  A    between atoms: _196  and  _199
REMARK   80  A    between atoms: _199  and  _200
REMARK   81  A    between atoms: _203  and  _205
REMARK   82  A    between atoms: _205  and  _206
REMARK   83  A    between atoms: _205  and  _208
REMARK   84  A    between atoms: _208  and  _209
REMARK   85  A    between atoms: _214  and  _216
REMARK   86  A    between atoms: _216  and  _217
REMARK   87  A    between atoms: _219  and  _221
REMARK   88  A    between atoms: _221  and  _222
REMARK   89  A    between atoms: _224  and  _226
REMARK   90  A    between atoms: _226  and  _227
REMARK   91  A    between atoms: _226  and  _229
REMARK   92  A    between atoms: _229  and  _230
REMARK   93  A    between atoms: _234  and  ZN_1038
REMARK   94  A    between atoms: _235  and  _237
REMARK   95  A    between atoms: _237  and  _238
REMARK   96  A    between atoms: _237  and  _240
REMARK   97  A    between atoms: _240  and  _241
REMARK   98  A    between atoms: _244  and  _246
REMARK   99  A    between atoms: _246  and  _247
REMARK  100  A    between atoms: _246  and  _249
REMARK  101  A    between atoms: _249  and  _250
REMARK  102  A    between atoms: _260  and  _262
REMARK  103  A    between atoms: _262  and  _263
REMARK  104  A    between atoms: _262  and  _265
REMARK  105  A    between atoms: _265  and  _266
REMARK  106  A    between atoms: _269  and  _271
REMARK  107  A    between atoms: _271  and  _272
REMARK  108  A    between atoms: _271  and  _274
REMARK  109  A    between atoms: _274  and  _275
REMARK  110  A    between atoms: _279  and  _280
REMARK  111  A    between atoms: _285  and  _287
REMARK  112  A    between atoms: _287  and  _288
REMARK  113  A    between atoms: _291  and  _293
REMARK  114  A    between atoms: _293  and  _294
REMARK  115  A    between atoms: _293  and  _296
REMARK  116  A    between atoms: _296  and  _297
REMARK  117  A    between atoms: _297  and  _298
REMARK  118  A    between atoms: _301  and  _303
REMARK  119  A    between atoms: _303  and  _304
REMARK  120  A    between atoms: _303  and  _306
REMARK  121  A    between atoms: _306  and  _307
REMARK  122  A    between atoms: _307  and  _308
REMARK  123  A    between atoms: _308  and  _310
REMARK  124  A    between atoms: _310  and  ZN_1037
REMARK  125  A    between atoms: _311  and  _313
REMARK  126  A    between atoms: _313  and  _314
REMARK  127  A    between atoms: _313  and  _316
REMARK  128  A    between atoms: _316  and  _317
REMARK  129  A    between atoms: _323  and  _325
REMARK  130  A    between atoms: _325  and  _326
REMARK  131  A    between atoms: _328  and  _330
REMARK  132  A    between atoms: _330  and  _331
REMARK  133  A    between atoms: _330  and  _333
REMARK  134  A    between atoms: _333  and  _334
REMARK  135  A    between atoms: _337  and  _339
REMARK  136  A    between atoms: _339  and  _340
REMARK  137  A    between atoms: _339  and  _342
REMARK  138  A    between atoms: _342  and  _343
REMARK  139  A    between atoms: _346  and  _348
REMARK  140  A    between atoms: _348  and  _349
REMARK  141  A    between atoms: _348  and  _351
REMARK  142  A    between atoms: _351  and  _352
REMARK  143  A    between atoms: _357  and  _359
REMARK  144  A    between atoms: _359  and  _360
REMARK  145  A    between atoms: _359  and  _362
REMARK  146  A    between atoms: _362  and  _363
REMARK  147  A    between atoms: _363  and  _365
REMARK  148  A    between atoms: _365  and  ZN_1038
REMARK  149  A    between atoms: _366  and  _368
REMARK  150  A    between atoms: _368  and  _369
REMARK  151  A    between atoms: _368  and  _371
REMARK  152  A    between atoms: _371  and  _372
REMARK  153  A    between atoms: _374  and  _376
REMARK  154  A    between atoms: _376  and  _377
REMARK  155  A    between atoms: _376  and  _379
REMARK  156  A    between atoms: _379  and  _380
REMARK  157  A    between atoms: _382  and  _384
REMARK  158  A    between atoms: _384  and  _385
REMARK  159  A    between atoms: _384  and  _387
REMARK  160  A    between atoms: _387  and  _388
REMARK  161  A    between atoms: _391  and  _393
REMARK  162  A    between atoms: _393  and  _394
REMARK  163  A    between atoms: _393  and  _396
REMARK  164  A    between atoms: _396  and  _397
REMARK  165  A    between atoms: _397  and  _398
REMARK  166  A    between atoms: _401  and  _403
REMARK  167  A    between atoms: _403  and  _404
REMARK  168  A    between atoms: _403  and  _406
REMARK  169  A    between atoms: _406  and  _407
REMARK  170  A    between atoms: _412  and  _413
REMARK  171  A    between atoms: _415  and  _417
REMARK  172  A    between atoms: _417  and  _418
REMARK  173  A    between atoms: _417  and  _420
REMARK  174  A    between atoms: _420  and  _421
REMARK  175  A    between atoms: _424  and  _426
REMARK  176  A    between atoms: _426  and  _427
REMARK  177  A    between atoms: _426  and  _429
REMARK  178  A    between atoms: _429  and  _430
REMARK  179  A    between atoms: _433  and  _435
REMARK  180  A    between atoms: _435  and  _436
REMARK  181  A    between atoms: _435  and  _438
REMARK  182  A    between atoms: _438  and  _439
REMARK  183  A    between atoms: _439  and  _440
REMARK  184  A    between atoms: _440  and  _441
REMARK  185  A    between atoms: _450  and  _452
REMARK  186  A    between atoms: _452  and  _453
REMARK  187  A    between atoms: _452  and  _455
REMARK  188  A    between atoms: _458  and  _460
REMARK  189  A    between atoms: _460  and  _461
REMARK  190  A    between atoms: _460  and  _463
REMARK  191  A    between atoms: _463  and  _464
REMARK  192  A    between atoms: _467  and  _469
REMARK  193  A    between atoms: _469  and  _470
REMARK  194  A    between atoms: _469  and  _472
REMARK  195  A    between atoms: _474  and  _476
REMARK  196  A    between atoms: _476  and  _477
REMARK  197  A    between atoms: _476  and  _479
REMARK  198  A    between atoms: _479  and  _480
REMARK  199  A    between atoms: _490  and  _492
REMARK  200  A    between atoms: _492  and  _493
REMARK  201  A    between atoms: _492  and  _495
REMARK  202  A    between atoms: _495  and  _496
REMARK  203  A    between atoms: _496  and  _497
REMARK  204  A    between atoms: _497  and  _498
REMARK  205  A    between atoms: _498  and  _499
REMARK  206  A    between atoms: _503  and  _505
REMARK  207  A    between atoms: _505  and  _506
REMARK  208  A    between atoms: _505  and  _508
REMARK  209  A    between atoms: _508  and  _509
REMARK  210  A    between atoms: _512  and  _513
REMARK  211  A    between atoms: _519  and  _520
REMARK  212  A    between atoms: _525  and  _527
REMARK  213  A    between atoms: _527  and  _528
REMARK  214  A    between atoms: _527  and  _530
REMARK  215  A    between atoms: _530  and  _531
REMARK  216  A    between atoms: _531  and  _532
REMARK  217  A    between atoms: _535  and  _537
REMARK  218  A    between atoms: _537  and  _538
REMARK  219  A    between atoms: _537  and  _540
REMARK  220  A    between atoms: _540  and  _541
REMARK  221  A    between atoms: _541  and  _542
REMARK  222  A    between atoms: _542  and  _543
REMARK  223  A    between atoms: _552  and  _554
REMARK  224  A    between atoms: _554  and  _555
REMARK  225  A    between atoms: _554  and  _557
REMARK  226  A    between atoms: _557  and  _558
REMARK  227  A    between atoms: _561  and  _563
REMARK  228  A    between atoms: _563  and  _564
REMARK  229  A    between atoms: _563  and  _566
REMARK  230  A    between atoms: _566  and  _567
REMARK  231  A    between atoms: _569  and  _571
REMARK  232  A    between atoms: _571  and  _572
REMARK  233  A    between atoms: _571  and  _574
REMARK  234  A    between atoms: _574  and  _575
REMARK  235  A    between atoms: _575  and  _576
REMARK  236  A    between atoms: _576  and  _577
REMARK  237  A    between atoms: _577  and  _578
REMARK  238  A    between atoms: _582  and  _584
REMARK  239  A    between atoms: _584  and  _585
REMARK  240  A    between atoms: _584  and  _587
REMARK  241  A    between atoms: _587  and  _588
REMARK  242  A    between atoms: _591  and  _593
REMARK  243  A    between atoms: _593  and  _594
REMARK  244  A    between atoms: _596  and  _598
REMARK  245  A    between atoms: _598  and  _599
REMARK  246  A    between atoms: _598  and  _601
REMARK  247  A    between atoms: _601  and  _602
REMARK  248  A    between atoms: _604  and  _606
REMARK  249  A    between atoms: _606  and  _607
REMARK  250  A    between atoms: _609  and  _611
REMARK  251  A    between atoms: _611  and  _612
REMARK  252  A    between atoms: _611  and  _614
REMARK  253  A    between atoms: _614  and  _615
REMARK  254  A    between atoms: _620  and  _622
REMARK  255  A    between atoms: _622  and  _623
REMARK  256  A    between atoms: _622  and  _625
REMARK  257  A    between atoms: _625  and  _626
REMARK  258  A    between atoms: _629  and  _631
REMARK  259  A    between atoms: _631  and  _632
REMARK  260  A    between atoms: _631  and  _634
REMARK  261  A    between atoms: _634  and  _635
REMARK  262  A    between atoms: _641  and  _643
REMARK  263  A    between atoms: _643  and  _644
REMARK  264  A    between atoms: _643  and  _646
REMARK  265  A    between atoms: _646  and  _647
REMARK  266  A    between atoms: _647  and  _648
REMARK  267  A    between atoms: _651  and  _653
REMARK  268  A    between atoms: _653  and  _654
REMARK  269  A    between atoms: _653  and  _656
REMARK  270  A    between atoms: _656  and  _657
REMARK  271  A    between atoms: _657  and  _658
REMARK  272  A    between atoms: _663  and  _665
REMARK  273  A    between atoms: _665  and  _666
REMARK  274  A    between atoms: _665  and  _668
REMARK  275  A    between atoms: _668  and  _669
REMARK  276  A    between atoms: _669  and  _670
REMARK  277  A    between atoms: _670  and  _671
REMARK  278  A    between atoms: _680  and  _682
REMARK  279  A    between atoms: _682  and  _683
REMARK  280  A    between atoms: _682  and  _685
REMARK  281  A    between atoms: _685  and  _686
REMARK  282  A    between atoms: _686  and  _687
REMARK  283  A    between atoms: _687  and  _688
REMARK  284  A    between atoms: _697  and  _699
REMARK  285  A    between atoms: _699  and  _700
REMARK  286  A    between atoms: _699  and  _702
REMARK  287  A    between atoms: _702  and  _703
REMARK  288  A    between atoms: _708  and  _709
REMARK  289  A    between atoms: _711  and  _713
REMARK  290  A    between atoms: _713  and  _714
REMARK  291  A    between atoms: _713  and  _716
REMARK  292  A    between atoms: _716  and  _717
REMARK  293  A    between atoms: _720  and  _722
REMARK  294  A    between atoms: _722  and  _723
REMARK  295  A    between atoms: _722  and  _725
REMARK  296  A    between atoms: _725  and  _726
REMARK  297  A    between atoms: _726  and  _727
REMARK  298  A    between atoms: _727  and  _728
REMARK  299  A    between atoms: _728  and  _729
REMARK  300  A    between atoms: _733  and  _735
REMARK  301  A    between atoms: _735  and  _736
REMARK  302  A    between atoms: _735  and  _738
REMARK  303  A    between atoms: _738  and  _739
REMARK  304  A    between atoms: _744  and  _746
REMARK  305  A    between atoms: _746  and  _747
REMARK  306  A    between atoms: _746  and  _749
REMARK  307  A    between atoms: _749  and  _750
REMARK  308  A    between atoms: _760  and  _762
REMARK  309  A    between atoms: _762  and  _763
REMARK  310  A    between atoms: _762  and  _765
REMARK  311  A    between atoms: _765  and  _766
REMARK  312  A    between atoms: _766  and  _767
REMARK  313  A    between atoms: _770  and  _772
REMARK  314  A    between atoms: _772  and  _773
REMARK  315  A    between atoms: _772  and  _775
REMARK  316  A    between atoms: _775  and  _776
REMARK  317  A    between atoms: _779  and  _781
REMARK  318  A    between atoms: _781  and  _782
REMARK  319  A    between atoms: _781  and  _784
REMARK  320  A    between atoms: _784  and  _785
REMARK  321  A    between atoms: _790  and  _792
REMARK  322  A    between atoms: _792  and  _793
REMARK  323  A    between atoms: _792  and  _795
REMARK  324  A    between atoms: _795  and  _796
REMARK  325  A    between atoms: _802  and  _804
REMARK  326  A    between atoms: _804  and  _805
REMARK  327  A    between atoms: _804  and  _807
REMARK  328  A    between atoms: _807  and  _808
REMARK  329  A    between atoms: _810  and  _812
REMARK  330  A    between atoms: _812  and  _813
REMARK  331  A    between atoms: _815  and  _817
REMARK  332  A    between atoms: _817  and  _818
REMARK  333  A    between atoms: _817  and  _820
REMARK  334  A    between atoms: _820  and  _821
REMARK  335  A    between atoms: _826  and  _827
REMARK  336  A    between atoms: _829  and  _831
REMARK  337  A    between atoms: _831  and  _832
REMARK  338  A    between atoms: _831  and  _834
REMARK  339  A    between atoms: _834  and  _835
REMARK  340  A    between atoms: _840  and  _841
REMARK  341  A    between atoms: _843  and  _845
REMARK  342  A    between atoms: _845  and  _846
REMARK  343  A    between atoms: _845  and  _848
REMARK  344  A    between atoms: _848  and  _849
REMARK  345  A    between atoms: _853  and  ZN_1037
REMARK  346  A    between atoms: _854  and  _856
REMARK  347  A    between atoms: _856  and  _857
REMARK  348  A    between atoms: _856  and  _859
REMARK  349  A    between atoms: _859  and  _860
REMARK  350  A    between atoms: _860  and  _861
REMARK  351  A    between atoms: _864  and  _866
REMARK  352  A    between atoms: _866  and  _867
REMARK  353  A    between atoms: _866  and  _869
REMARK  354  A    between atoms: _869  and  _870
REMARK  355  A    between atoms: _870  and  _871
REMARK  356  A    between atoms: _871  and  _872
REMARK  357  A    between atoms: _881  and  _883
REMARK  358  A    between atoms: _883  and  _884
REMARK  359  A    between atoms: _883  and  _886
REMARK  360  A    between atoms: _886  and  _887
REMARK  361  A    between atoms: _887  and  _888
REMARK  362  A    between atoms: _888  and  _889
REMARK  363  A    between atoms: _889  and  _890
REMARK  364  A    between atoms: _894  and  _896
REMARK  365  A    between atoms: _896  and  _897
REMARK  366  A    between atoms: _896  and  _899
REMARK  367  A    between atoms: _899  and  _900
REMARK  368  A    between atoms: _905  and  _906
REMARK  369  A    between atoms: _908  and  _910
REMARK  370  A    between atoms: _910  and  _911
REMARK  371  A    between atoms: _910  and  _913
REMARK  372  A    between atoms: _913  and  _914
REMARK  373  A    between atoms: _914  and  _915
REMARK  374  A    between atoms: _915  and  _916
REMARK  375  A    between atoms: _916  and  _917
REMARK  376  A    between atoms: _921  and  _923
REMARK  377  A    between atoms: _923  and  _924
REMARK  378  A    between atoms: _923  and  _926
REMARK  379  A    between atoms: _926  and  _927
REMARK  380  A    between atoms: _932  and  _933
REMARK  381  A    between atoms: _935  and  _937
REMARK  382  A    between atoms: _937  and  _938
REMARK  383  A    between atoms: _937  and  _940
REMARK  384  A    between atoms: _940  and  _941
REMARK  385  A    between atoms: _946  and  _947
REMARK  386  A    between atoms: _949  and  _951
REMARK  387  A    between atoms: _951  and  _952
REMARK  388  A    between atoms: _956  and  _957
REMARK  389  A    between atoms: _962  and  _964
REMARK  390  A    between atoms: _964  and  _965
REMARK  391  A    between atoms: _964  and  _967
REMARK  392  A    between atoms: _967  and  _968
REMARK  393  A    between atoms: _970  and  _972
REMARK  394  A    between atoms: _972  and  _973
REMARK  395  A    between atoms: _972  and  _975
REMARK  396  A    between atoms: _975  and  _976
REMARK  397  A    between atoms: _981  and  _983
REMARK  398  A    between atoms: _983  and  _984
REMARK  399  A    between atoms: _983  and  _986
REMARK  400  A    between atoms: _986  and  _987
REMARK  401  A    between atoms: _987  and  _988
REMARK  402  A    between atoms: _988  and  _989
REMARK  403  A    between atoms: _989  and  _990
REMARK  404  A    between atoms: _994  and  _996
REMARK  405  A    between atoms: _996  and  _997
REMARK  406  A    between atoms: _996  and  _999
REMARK  407  A    between atoms: _999  and  _1000
REMARK  408  A    between atoms: _1005  and  _1006
REMARK  409  A    between atoms: _1008  and  _1010
REMARK  410  A    between atoms: _1010  and  _1011
REMARK  411  A    between atoms: _1014  and  _1016
REMARK  412  A    between atoms: _1016  and  _1017
REMARK  413  A    between atoms: _1019  and  _1021
REMARK  414  A    between atoms: _1021  and  _1022
REMARK  415  A    between atoms: _1021  and  _1024
REMARK  416  A    between atoms: _1024  and  _1025
REMARK  417  A    between atoms: _1025  and  _1026
REMARK  418  A    between atoms: _1029  and  _1031
REMARK  419  A    between atoms: _1031  and  _1032
REMARK  420  A    between atoms: _1031  and  _1034
REMARK  421  A    between atoms: _1034  and  _1035
REMARK                            x       y       z     vdW  Elec       q    Type
REMARK                         _______ _______ _______ _____ _____    ______ ____
ROOT
ATOM      1  O   HOH     1      35.110  55.872  51.410  0.00  0.00    +0.000 OA
ENDROOT
TORSDOF 0
REMARK  Name = ../refined-set-2016/2xef/2xef_pocket.pdb
REMARK  421 active torsions:
REMARK  status: ('A' for Active; 'I' for Inactive)
REMARK    1  A    between atoms: _1  and  _3
REMARK    2  A    between atoms: _3  and  _4
REMARK    3  A    between atoms: _7  and  _9
REMARK    4  A    between atoms: _9  and  _10
REMARK    5  A    between atoms: _9  and  _12
REMARK    6  A    between atoms: _12  and  _13
REMARK    7  A    between atoms: _19  and  _21
REMARK    8  A    between atoms: _21  and  _22
REMARK    9  A    between atoms: _21  and  _24
REMARK   10  A    between atoms: _24  and  _25
REMARK   11  A    between atoms: _30  and  _31
REMARK   12  A    between atoms: _33  and  _35
REMARK   13  A    between atoms: _35  and  _36
REMARK   14  A    between atoms: _38  and  _40
REMARK   15  A    between atoms: _40  and  _41
REMARK   16  A    between atoms: _40  and  _43
REMARK   17  A    between atoms: _43  and  _44
REMARK   18  A    between atoms: _44  and  _45
REMARK   19  A    between atoms: _45  and  _46
REMARK   20  A    between atoms: _46  and  _47
REMARK   21  A    between atoms: _51  and  _53
REMARK   22  A    between atoms: _53  and  _54
REMARK   23  A    between atoms: _53  and  _56
REMARK   24  A    between atoms: _59  and  _61
REMARK   25  A    between atoms: _61  and  _62
REMARK   26  A    between atoms: _61  and  _64
REMARK   27  A    between atoms: _64  and  _65
REMARK   28  A    between atoms: _71  and  _73
REMARK   29  A    between atoms: _73  and  _74
REMARK   30  A    between atoms: _73  and  _76
REMARK   31  A    between atoms: _76  and  _77
REMARK   32  A    between atoms: _77  and  _78
REMARK   33  A    between atoms: _78  and  _79
REMARK   34  A    between atoms: _88  and  _90
REMARK   35  A    between atoms: _90  and  _91
REMARK   36  A    between atoms: _93  and  _95
REMARK   37  A    between atoms: _95  and  _96
REMARK   38  A    between atoms: _95  and  _98
REMARK   39  A    between atoms: _98  and  _99
REMARK   40  A    between atoms: _99  and  _100
REMARK   41  A    between atoms: _100  and  _101
REMARK   42  A    between atoms: _101  and  _102
REMARK   43  A    between atoms: _106  and  _108
REMARK   44  A    between atoms: _108  and  _109
REMARK   45  A    between atoms: _108  and  _111
REMARK   46  A    between atoms: _111  and  _112
REMARK   47  A    between atoms: _117  and  _118
REMARK   48  A    between atoms: _120  and  _122
REMARK   49  A    between atoms: _122  and  _123
REMARK   50  A    between atoms: _122  and  _125
REMARK   51  A    between atoms: _125  and  _126
REMARK   52  A    between atoms: _126  and  _127
REMARK   53  A    between atoms: _132  and  _134
REMARK   54  A    between atoms: _134  and  _135
REMARK   55  A    between atoms: _134  and  _137
REMARK   56  A    between atoms: _137  and  _138
REMARK   57  A    between atoms: _138  and  _139
REMARK   58  A    between atoms: _139  and  _140
REMARK   59  A    between atoms: _149  and  _151
REMARK   60  A    between atoms: _151  and  _152
REMARK   61  A    between atoms: _154  and  _156
REMARK   62  A    between atoms: _156  and  _157
REMARK   63  A    between atoms: _156  and  _159
REMARK   64  A    between atoms: _159  and  _160
REMARK   65  A    between atoms: _165  and  _167
REMARK   66  A    between atoms: _167  and  _168
REMARK   67  A    between atoms: _167  and  _170
REMARK   68  A    between atoms: _170  and  _171
REMARK   69  A    between atoms: _174  and  _176
REMARK   70  A    between atoms: _176  and  _177
REMARK   71  A    between atoms: _176  and  _179
REMARK   72  A    between atoms: _179  and  _180
REMARK   73  A    between atoms: _183  and  _185
REMARK   74  A    between atoms: _185  and  _186
REMARK   75  A    between atoms: _185  and  _188
REMARK   76  A    between atoms: _188  and  _189
REMARK   77  A    between atoms: _194  and  _196
REMARK   78  A    between atoms: _196  and  _197
REMARK   79  A    between atoms: _196  and  _199
REMARK   80  A    between atoms: _199  and  _200
REMARK   81  A    between atoms: _203  and  _205
REMARK   82  A    between atoms: _205  and  _206
REMARK   83  A    between atoms: _205  and  _208
REMARK   84  A    between atoms: _208  and  _209
REMARK   85  A    between atoms: _214  and  _216
REMARK   86  A    between atoms: _216  and  _217
REMARK   87  A    between atoms: _219  and  _221
REMARK   88  A    between atoms: _221  and  _222
REMARK   89  A    between atoms: _224  and  _226
REMARK   90  A    between atoms: _226  and  _227
REMARK   91  A    between atoms: _226  and  _229
REMARK   92  A    between atoms: _229  and  _230
REMARK   93  A    between atoms: _234  and  ZN_1038
REMARK   94  A    between atoms: _235  and  _237
REMARK   95  A    between atoms: _237  and  _238
REMARK   96  A    between atoms: _237  and  _240
REMARK   97  A    between atoms: _240  and  _241
REMARK   98  A    between atoms: _244  and  _246
REMARK   99  A    between atoms: _246  and  _247
REMARK  100  A    between atoms: _246  and  _249
REMARK  101  A    between atoms: _249  and  _250
REMARK  102  A    between atoms: _260  and  _262
REMARK  103  A    between atoms: _262  and  _263
REMARK  104  A    between atoms: _262  and  _265
REMARK  105  A    between atoms: _265  and  _266
REMARK  106  A    between atoms: _269  and  _271
REMARK  107  A    between atoms: _271  and  _272
REMARK  108  A    between atoms: _271  and  _274
REMARK  109  A    between atoms: _274  and  _275
REMARK  110  A    between atoms: _279  and  _280
REMARK  111  A    between atoms: _285  and  _287
REMARK  112  A    between atoms: _287  and  _288
REMARK  113  A    between atoms: _291  and  _293
REMARK  114  A    between atoms: _293  and  _294
REMARK  115  A    between atoms: _293  and  _296
REMARK  116  A    between atoms: _296  and  _297
REMARK  117  A    between atoms: _297  and  _298
REMARK  118  A    between atoms: _301  and  _303
REMARK  119  A    between atoms: _303  and  _304
REMARK  120  A    between atoms: _303  and  _306
REMARK  121  A    between atoms: _306  and  _307
REMARK  122  A    between atoms: _307  and  _308
REMARK  123  A    between atoms: _308  and  _310
REMARK  124  A    between atoms: _310  and  ZN_1037
REMARK  125  A    between atoms: _311  and  _313
REMARK  126  A    between atoms: _313  and  _314
REMARK  127  A    between atoms: _313  and  _316
REMARK  128  A    between atoms: _316  and  _317
REMARK  129  A    between atoms: _323  and  _325
REMARK  130  A    between atoms: _325  and  _326
REMARK  131  A    between atoms: _328  and  _330
REMARK  132  A    between atoms: _330  and  _331
REMARK  133  A    between atoms: _330  and  _333
REMARK  134  A    between atoms: _333  and  _334
REMARK  135  A    between atoms: _337  and  _339
REMARK  136  A    between atoms: _339  and  _340
REMARK  137  A    between atoms: _339  and  _342
REMARK  138  A    between atoms: _342  and  _343
REMARK  139  A    between atoms: _346  and  _348
REMARK  140  A    between atoms: _348  and  _349
REMARK  141  A    between atoms: _348  and  _351
REMARK  142  A    between atoms: _351  and  _352
REMARK  143  A    between atoms: _357  and  _359
REMARK  144  A    between atoms: _359  and  _360
REMARK  145  A    between atoms: _359  and  _362
REMARK  146  A    between atoms: _362  and  _363
REMARK  147  A    between atoms: _363  and  _365
REMARK  148  A    between atoms: _365  and  ZN_1038
REMARK  149  A    between atoms: _366  and  _368
REMARK  150  A    between atoms: _368  and  _369
REMARK  151  A    between atoms: _368  and  _371
REMARK  152  A    between atoms: _371  and  _372
REMARK  153  A    between atoms: _374  and  _376
REMARK  154  A    between atoms: _376  and  _377
REMARK  155  A    between atoms: _376  and  _379
REMARK  156  A    between atoms: _379  and  _380
REMARK  157  A    between atoms: _382  and  _384
REMARK  158  A    between atoms: _384  and  _385
REMARK  159  A    between atoms: _384  and  _387
REMARK  160  A    between atoms: _387  and  _388
REMARK  161  A    between atoms: _391  and  _393
REMARK  162  A    between atoms: _393  and  _394
REMARK  163  A    between atoms: _393  and  _396
REMARK  164  A    between atoms: _396  and  _397
REMARK  165  A    between atoms: _397  and  _398
REMARK  166  A    between atoms: _401  and  _403
REMARK  167  A    between atoms: _403  and  _404
REMARK  168  A    between atoms: _403  and  _406
REMARK  169  A    between atoms: _406  and  _407
REMARK  170  A    between atoms: _412  and  _413
REMARK  171  A    between atoms: _415  and  _417
REMARK  172  A    between atoms: _417  and  _418
REMARK  173  A    between atoms: _417  and  _420
REMARK  174  A    between atoms: _420  and  _421
REMARK  175  A    between atoms: _424  and  _426
REMARK  176  A    between atoms: _426  and  _427
REMARK  177  A    between atoms: _426  and  _429
REMARK  178  A    between atoms: _429  and  _430
REMARK  179  A    between atoms: _433  and  _435
REMARK  180  A    between atoms: _435  and  _436
REMARK  181  A    between atoms: _435  and  _438
REMARK  182  A    between atoms: _438  and  _439
REMARK  183  A    between atoms: _439  and  _440
REMARK  184  A    between atoms: _440  and  _441
REMARK  185  A    between atoms: _450  and  _452
REMARK  186  A    between atoms: _452  and  _453
REMARK  187  A    between atoms: _452  and  _455
REMARK  188  A    between atoms: _458  and  _460
REMARK  189  A    between atoms: _460  and  _461
REMARK  190  A    between atoms: _460  and  _463
REMARK  191  A    between atoms: _463  and  _464
REMARK  192  A    between atoms: _467  and  _469
REMARK  193  A    between atoms: _469  and  _470
REMARK  194  A    between atoms: _469  and  _472
REMARK  195  A    between atoms: _474  and  _476
REMARK  196  A    between atoms: _476  and  _477
REMARK  197  A    between atoms: _476  and  _479
REMARK  198  A    between atoms: _479  and  _480
REMARK  199  A    between atoms: _490  and  _492
REMARK  200  A    between atoms: _492  and  _493
REMARK  201  A    between atoms: _492  and  _495
REMARK  202  A    between atoms: _495  and  _496
REMARK  203  A    between atoms: _496  and  _497
REMARK  204  A    between atoms: _497  and  _498
REMARK  205  A    between atoms: _498  and  _499
REMARK  206  A    between atoms: _503  and  _505
REMARK  207  A    between atoms: _505  and  _506
REMARK  208  A    between atoms: _505  and  _508
REMARK  209  A    between atoms: _508  and  _509
REMARK  210  A    between atoms: _512  and  _513
REMARK  211  A    between atoms: _519  and  _520
REMARK  212  A    between atoms: _525  and  _527
REMARK  213  A    between atoms: _527  and  _528
REMARK  214  A    between atoms: _527  and  _530
REMARK  215  A    between atoms: _530  and  _531
REMARK  216  A    between atoms: _531  and  _532
REMARK  217  A    between atoms: _535  and  _537
REMARK  218  A    between atoms: _537  and  _538
REMARK  219  A    between atoms: _537  and  _540
REMARK  220  A    between atoms: _540  and  _541
REMARK  221  A    between atoms: _541  and  _542
REMARK  222  A    between atoms: _542  and  _543
REMARK  223  A    between atoms: _552  and  _554
REMARK  224  A    between atoms: _554  and  _555
REMARK  225  A    between atoms: _554  and  _557
REMARK  226  A    between atoms: _557  and  _558
REMARK  227  A    between atoms: _561  and  _563
REMARK  228  A    between atoms: _563  and  _564
REMARK  229  A    between atoms: _563  and  _566
REMARK  230  A    between atoms: _566  and  _567
REMARK  231  A    between atoms: _569  and  _571
REMARK  232  A    between atoms: _571  and  _572
REMARK  233  A    between atoms: _571  and  _574
REMARK  234  A    between atoms: _574  and  _575
REMARK  235  A    between atoms: _575  and  _576
REMARK  236  A    between atoms: _576  and  _577
REMARK  237  A    between atoms: _577  and  _578
REMARK  238  A    between atoms: _582  and  _584
REMARK  239  A    between atoms: _584  and  _585
REMARK  240  A    between atoms: _584  and  _587
REMARK  241  A    between atoms: _587  and  _588
REMARK  242  A    between atoms: _591  and  _593
REMARK  243  A    between atoms: _593  and  _594
REMARK  244  A    between atoms: _596  and  _598
REMARK  245  A    between atoms: _598  and  _599
REMARK  246  A    between atoms: _598  and  _601
REMARK  247  A    between atoms: _601  and  _602
REMARK  248  A    between atoms: _604  and  _606
REMARK  249  A    between atoms: _606  and  _607
REMARK  250  A    between atoms: _609  and  _611
REMARK  251  A    between atoms: _611  and  _612
REMARK  252  A    between atoms: _611  and  _614
REMARK  253  A    between atoms: _614  and  _615
REMARK  254  A    between atoms: _620  and  _622
REMARK  255  A    between atoms: _622  and  _623
REMARK  256  A    between atoms: _622  and  _625
REMARK  257  A    between atoms: _625  and  _626
REMARK  258  A    between atoms: _629  and  _631
REMARK  259  A    between atoms: _631  and  _632
REMARK  260  A    between atoms: _631  and  _634
REMARK  261  A    between atoms: _634  and  _635
REMARK  262  A    between atoms: _641  and  _643
REMARK  263  A    between atoms: _643  and  _644
REMARK  264  A    between atoms: _643  and  _646
REMARK  265  A    between atoms: _646  and  _647
REMARK  266  A    between atoms: _647  and  _648
REMARK  267  A    between atoms: _651  and  _653
REMARK  268  A    between atoms: _653  and  _654
REMARK  269  A    between atoms: _653  and  _656
REMARK  270  A    between atoms: _656  and  _657
REMARK  271  A    between atoms: _657  and  _658
REMARK  272  A    between atoms: _663  and  _665
REMARK  273  A    between atoms: _665  and  _666
REMARK  274  A    between atoms: _665  and  _668
REMARK  275  A    between atoms: _668  and  _669
REMARK  276  A    between atoms: _669  and  _670
REMARK  277  A    between atoms: _670  and  _671
REMARK  278  A    between atoms: _680  and  _682
REMARK  279  A    between atoms: _682  and  _683
REMARK  280  A    between atoms: _682  and  _685
REMARK  281  A    between atoms: _685  and  _686
REMARK  282  A    between atoms: _686  and  _687
REMARK  283  A    between atoms: _687  and  _688
REMARK  284  A    between atoms: _697  and  _699
REMARK  285  A    between atoms: _699  and  _700
REMARK  286  A    between atoms: _699  and  _702
REMARK  287  A    between atoms: _702  and  _703
REMARK  288  A    between atoms: _708  and  _709
REMARK  289  A    between atoms: _711  and  _713
REMARK  290  A    between atoms: _713  and  _714
REMARK  291  A    between atoms: _713  and  _716
REMARK  292  A    between atoms: _716  and  _717
REMARK  293  A    between atoms: _720  and  _722
REMARK  294  A    between atoms: _722  and  _723
REMARK  295  A    between atoms: _722  and  _725
REMARK  296  A    between atoms: _725  and  _726
REMARK  297  A    between atoms: _726  and  _727
REMARK  298  A    between atoms: _727  and  _728
REMARK  299  A    between atoms: _728  and  _729
REMARK  300  A    between atoms: _733  and  _735
REMARK  301  A    between atoms: _735  and  _736
REMARK  302  A    between atoms: _735  and  _738
REMARK  303  A    between atoms: _738  and  _739
REMARK  304  A    between atoms: _744  and  _746
REMARK  305  A    between atoms: _746  and  _747
REMARK  306  A    between atoms: _746  and  _749
REMARK  307  A    between atoms: _749  and  _750
REMARK  308  A    between atoms: _760  and  _762
REMARK  309  A    between atoms: _762  and  _763
REMARK  310  A    between atoms: _762  and  _765
REMARK  311  A    between atoms: _765  and  _766
REMARK  312  A    between atoms: _766  and  _767
REMARK  313  A    between atoms: _770  and  _772
REMARK  314  A    between atoms: _772  and  _773
REMARK  315  A    between atoms: _772  and  _775
REMARK  316  A    between atoms: _775  and  _776
REMARK  317  A    between atoms: _779  and  _781
REMARK  318  A    between atoms: _781  and  _782
REMARK  319  A    between atoms: _781  and  _784
REMARK  320  A    between atoms: _784  and  _785
REMARK  321  A    between atoms: _790  and  _792
REMARK  322  A    between atoms: _792  and  _793
REMARK  323  A    between atoms: _792  and  _795
REMARK  324  A    between atoms: _795  and  _796
REMARK  325  A    between atoms: _802  and  _804
REMARK  326  A    between atoms: _804  and  _805
REMARK  327  A    between atoms: _804  and  _807
REMARK  328  A    between atoms: _807  and  _808
REMARK  329  A    between atoms: _810  and  _812
REMARK  330  A    between atoms: _812  and  _813
REMARK  331  A    between atoms: _815  and  _817
REMARK  332  A    between atoms: _817  and  _818
REMARK  333  A    between atoms: _817  and  _820
REMARK  334  A    between atoms: _820  and  _821
REMARK  335  A    between atoms: _826  and  _827
REMARK  336  A    between atoms: _829  and  _831
REMARK  337  A    between atoms: _831  and  _832
REMARK  338  A    between atoms: _831  and  _834
REMARK  339  A    between atoms: _834  and  _835
REMARK  340  A    between atoms: _840  and  _841
REMARK  341  A    between atoms: _843  and  _845
REMARK  342  A    between atoms: _845  and  _846
REMARK  343  A    between atoms: _845  and  _848
REMARK  344  A    between atoms: _848  and  _849
REMARK  345  A    between atoms: _853  and  ZN_1037
REMARK  346  A    between atoms: _854  and  _856
REMARK  347  A    between atoms: _856  and  _857
REMARK  348  A    between atoms: _856  and  _859
REMARK  349  A    between atoms: _859  and  _860
REMARK  350  A    between atoms: _860  and  _861
REMARK  351  A    between atoms: _864  and  _866
REMARK  352  A    between atoms: _866  and  _867
REMARK  353  A    between atoms: _866  and  _869
REMARK  354  A    between atoms: _869  and  _870
REMARK  355  A    between atoms: _870  and  _871
REMARK  356  A    between atoms: _871  and  _872
REMARK  357  A    between atoms: _881  and  _883
REMARK  358  A    between atoms: _883  and  _884
REMARK  359  A    between atoms: _883  and  _886
REMARK  360  A    between atoms: _886  and  _887
REMARK  361  A    between atoms: _887  and  _888
REMARK  362  A    between atoms: _888  and  _889
REMARK  363  A    between atoms: _889  and  _890
REMARK  364  A    between atoms: _894  and  _896
REMARK  365  A    between atoms: _896  and  _897
REMARK  366  A    between atoms: _896  and  _899
REMARK  367  A    between atoms: _899  and  _900
REMARK  368  A    between atoms: _905  and  _906
REMARK  369  A    between atoms: _908  and  _910
REMARK  370  A    between atoms: _910  and  _911
REMARK  371  A    between atoms: _910  and  _913
REMARK  372  A    between atoms: _913  and  _914
REMARK  373  A    between atoms: _914  and  _915
REMARK  374  A    between atoms: _915  and  _916
REMARK  375  A    between atoms: _916  and  _917
REMARK  376  A    between atoms: _921  and  _923
REMARK  377  A    between atoms: _923  and  _924
REMARK  378  A    between atoms: _923  and  _926
REMARK  379  A    between atoms: _926  and  _927
REMARK  380  A    between atoms: _932  and  _933
REMARK  381  A    between atoms: _935  and  _937
REMARK  382  A    between atoms: _937  and  _938
REMARK  383  A    between atoms: _937  and  _940
REMARK  384  A    between atoms: _940  and  _941
REMARK  385  A    between atoms: _946  and  _947
REMARK  386  A    between atoms: _949  and  _951
REMARK  387  A    between atoms: _951  and  _952
REMARK  388  A    between atoms: _956  and  _957
REMARK  389  A    between atoms: _962  and  _964
REMARK  390  A    between atoms: _964  and  _965
REMARK  391  A    between atoms: _964  and  _967
REMARK  392  A    between atoms: _967  and  _968
REMARK  393  A    between atoms: _970  and  _972
REMARK  394  A    between atoms: _972  and  _973
REMARK  395  A    between atoms: _972  and  _975
REMARK  396  A    between atoms: _975  and  _976
REMARK  397  A    between atoms: _981  and  _983
REMARK  398  A    between atoms: _983  and  _984
REMARK  399  A    between atoms: _983  and  _986
REMARK  400  A    between atoms: _986  and  _987
REMARK  401  A    between atoms: _987  and  _988
REMARK  402  A    between atoms: _988  and  _989
REMARK  403  A    between atoms: _989  and  _990
REMARK  404  A    between atoms: _994  and  _996
REMARK  405  A    between atoms: _996  and  _997
REMARK  406  A    between atoms: _996  and  _999
REMARK  407  A    between atoms: _999  and  _1000
REMARK  408  A    between atoms: _1005  and  _1006
REMARK  409  A    between atoms: _1008  and  _1010
REMARK  410  A    between atoms: _1010  and  _1011
REMARK  411  A    between atoms: _1014  and  _1016
REMARK  412  A    between atoms: _1016  and  _1017
REMARK  413  A    between atoms: _1019  and  _1021
REMARK  414  A    between atoms: _1021  and  _1022
REMARK  415  A    between atoms: _1021  and  _1024
REMARK  416  A    between atoms: _1024  and  _1025
REMARK  417  A    between atoms: _1025  and  _1026
REMARK  418  A    between atoms: _1029  and  _1031
REMARK  419  A    between atoms: _1031  and  _1032
REMARK  420  A    between atoms: _1031  and  _1034
REMARK  421  A    between atoms: _1034  and  _1035
REMARK                            x       y       z     vdW  Elec       q    Type
REMARK                         _______ _______ _______ _____ _____    ______ ____
ROOT
ATOM      1  O   HOH     1      28.628  53.706  53.135  0.00  0.00    +0.000 OA
ENDROOT
TORSDOF 0
REMARK  Name = ../refined-set-2016/2xef/2xef_pocket.pdb
REMARK  421 active torsions:
REMARK  status: ('A' for Active; 'I' for Inactive)
REMARK    1  A    between atoms: _1  and  _3
REMARK    2  A    between atoms: _3  and  _4
REMARK    3  A    between atoms: _7  and  _9
REMARK    4  A    between atoms: _9  and  _10
REMARK    5  A    between atoms: _9  and  _12
REMARK    6  A    between atoms: _12  and  _13
REMARK    7  A    between atoms: _19  and  _21
REMARK    8  A    between atoms: _21  and  _22
REMARK    9  A    between atoms: _21  and  _24
REMARK   10  A    between atoms: _24  and  _25
REMARK   11  A    between atoms: _30  and  _31
REMARK   12  A    between atoms: _33  and  _35
REMARK   13  A    between atoms: _35  and  _36
REMARK   14  A    between atoms: _38  and  _40
REMARK   15  A    between atoms: _40  and  _41
REMARK   16  A    between atoms: _40  and  _43
REMARK   17  A    between atoms: _43  and  _44
REMARK   18  A    between atoms: _44  and  _45
REMARK   19  A    between atoms: _45  and  _46
REMARK   20  A    between atoms: _46  and  _47
REMARK   21  A    between atoms: _51  and  _53
REMARK   22  A    between atoms: _53  and  _54
REMARK   23  A    between atoms: _53  and  _56
REMARK   24  A    between atoms: _59  and  _61
REMARK   25  A    between atoms: _61  and  _62
REMARK   26  A    between atoms: _61  and  _64
REMARK   27  A    between atoms: _64  and  _65
REMARK   28  A    between atoms: _71  and  _73
REMARK   29  A    between atoms: _73  and  _74
REMARK   30  A    between atoms: _73  and  _76
REMARK   31  A    between atoms: _76  and  _77
REMARK   32  A    between atoms: _77  and  _78
REMARK   33  A    between atoms: _78  and  _79
REMARK   34  A    between atoms: _88  and  _90
REMARK   35  A    between atoms: _90  and  _91
REMARK   36  A    between atoms: _93  and  _95
REMARK   37  A    between atoms: _95  and  _96
REMARK   38  A    between atoms: _95  and  _98
REMARK   39  A    between atoms: _98  and  _99
REMARK   40  A    between atoms: _99  and  _100
REMARK   41  A    between atoms: _100  and  _101
REMARK   42  A    between atoms: _101  and  _102
REMARK   43  A    between atoms: _106  and  _108
REMARK   44  A    between atoms: _108  and  _109
REMARK   45  A    between atoms: _108  and  _111
REMARK   46  A    between atoms: _111  and  _112
REMARK   47  A    between atoms: _117  and  _118
REMARK   48  A    between atoms: _120  and  _122
REMARK   49  A    between atoms: _122  and  _123
REMARK   50  A    between atoms: _122  and  _125
REMARK   51  A    between atoms: _125  and  _126
REMARK   52  A    between atoms: _126  and  _127
REMARK   53  A    between atoms: _132  and  _134
REMARK   54  A    between atoms: _134  and  _135
REMARK   55  A    between atoms: _134  and  _137
REMARK   56  A    between atoms: _137  and  _138
REMARK   57  A    between atoms: _138  and  _139
REMARK   58  A    between atoms: _139  and  _140
REMARK   59  A    between atoms: _149  and  _151
REMARK   60  A    between atoms: _151  and  _152
REMARK   61  A    between atoms: _154  and  _156
REMARK   62  A    between atoms: _156  and  _157
REMARK   63  A    between atoms: _156  and  _159
REMARK   64  A    between atoms: _159  and  _160
REMARK   65  A    between atoms: _165  and  _167
REMARK   66  A    between atoms: _167  and  _168
REMARK   67  A    between atoms: _167  and  _170
REMARK   68  A    between atoms: _170  and  _171
REMARK   69  A    between atoms: _174  and  _176
REMARK   70  A    between atoms: _176  and  _177
REMARK   71  A    between atoms: _176  and  _179
REMARK   72  A    between atoms: _179  and  _180
REMARK   73  A    between atoms: _183  and  _185
REMARK   74  A    between atoms: _185  and  _186
REMARK   75  A    between atoms: _185  and  _188
REMARK   76  A    between atoms: _188  and  _189
REMARK   77  A    between atoms: _194  and  _196
REMARK   78  A    between atoms: _196  and  _197
REMARK   79  A    between atoms: _196  and  _199
REMARK   80  A    between atoms: _199  and  _200
REMARK   81  A    between atoms: _203  and  _205
REMARK   82  A    between atoms: _205  and  _206
REMARK   83  A    between atoms: _205  and  _208
REMARK   84  A    between atoms: _208  and  _209
REMARK   85  A    between atoms: _214  and  _216
REMARK   86  A    between atoms: _216  and  _217
REMARK   87  A    between atoms: _219  and  _221
REMARK   88  A    between atoms: _221  and  _222
REMARK   89  A    between atoms: _224  and  _226
REMARK   90  A    between atoms: _226  and  _227
REMARK   91  A    between atoms: _226  and  _229
REMARK   92  A    between atoms: _229  and  _230
REMARK   93  A    between atoms: _234  and  ZN_1038
REMARK   94  A    between atoms: _235  and  _237
REMARK   95  A    between atoms: _237  and  _238
REMARK   96  A    between atoms: _237  and  _240
REMARK   97  A    between atoms: _240  and  _241
REMARK   98  A    between atoms: _244  and  _246
REMARK   99  A    between atoms: _246  and  _247
REMARK  100  A    between atoms: _246  and  _249
REMARK  101  A    between atoms: _249  and  _250
REMARK  102  A    between atoms: _260  and  _262
REMARK  103  A    between atoms: _262  and  _263
REMARK  104  A    between atoms: _262  and  _265
REMARK  105  A    between atoms: _265  and  _266
REMARK  106  A    between atoms: _269  and  _271
REMARK  107  A    between atoms: _271  and  _272
REMARK  108  A    between atoms: _271  and  _274
REMARK  109  A    between atoms: _274  and  _275
REMARK  110  A    between atoms: _279  and  _280
REMARK  111  A    between atoms: _285  and  _287
REMARK  112  A    between atoms: _287  and  _288
REMARK  113  A    between atoms: _291  and  _293
REMARK  114  A    between atoms: _293  and  _294
REMARK  115  A    between atoms: _293  and  _296
REMARK  116  A    between atoms: _296  and  _297
REMARK  117  A    between atoms: _297  and  _298
REMARK  118  A    between atoms: _301  and  _303
REMARK  119  A    between atoms: _303  and  _304
REMARK  120  A    between atoms: _303  and  _306
REMARK  121  A    between atoms: _306  and  _307
REMARK  122  A    between atoms: _307  and  _308
REMARK  123  A    between atoms: _308  and  _310
REMARK  124  A    between atoms: _310  and  ZN_1037
REMARK  125  A    between atoms: _311  and  _313
REMARK  126  A    between atoms: _313  and  _314
REMARK  127  A    between atoms: _313  and  _316
REMARK  128  A    between atoms: _316  and  _317
REMARK  129  A    between atoms: _323  and  _325
REMARK  130  A    between atoms: _325  and  _326
REMARK  131  A    between atoms: _328  and  _330
REMARK  132  A    between atoms: _330  and  _331
REMARK  133  A    between atoms: _330  and  _333
REMARK  134  A    between atoms: _333  and  _334
REMARK  135  A    between atoms: _337  and  _339
REMARK  136  A    between atoms: _339  and  _340
REMARK  137  A    between atoms: _339  and  _342
REMARK  138  A    between atoms: _342  and  _343
REMARK  139  A    between atoms: _346  and  _348
REMARK  140  A    between atoms: _348  and  _349
REMARK  141  A    between atoms: _348  and  _351
REMARK  142  A    between atoms: _351  and  _352
REMARK  143  A    between atoms: _357  and  _359
REMARK  144  A    between atoms: _359  and  _360
REMARK  145  A    between atoms: _359  and  _362
REMARK  146  A    between atoms: _362  and  _363
REMARK  147  A    between atoms: _363  and  _365
REMARK  148  A    between atoms: _365  and  ZN_1038
REMARK  149  A    between atoms: _366  and  _368
REMARK  150  A    between atoms: _368  and  _369
REMARK  151  A    between atoms: _368  and  _371
REMARK  152  A    between atoms: _371  and  _372
REMARK  153  A    between atoms: _374  and  _376
REMARK  154  A    between atoms: _376  and  _377
REMARK  155  A    between atoms: _376  and  _379
REMARK  156  A    between atoms: _379  and  _380
REMARK  157  A    between atoms: _382  and  _384
REMARK  158  A    between atoms: _384  and  _385
REMARK  159  A    between atoms: _384  and  _387
REMARK  160  A    between atoms: _387  and  _388
REMARK  161  A    between atoms: _391  and  _393
REMARK  162  A    between atoms: _393  and  _394
REMARK  163  A    between atoms: _393  and  _396
REMARK  164  A    between atoms: _396  and  _397
REMARK  165  A    between atoms: _397  and  _398
REMARK  166  A    between atoms: _401  and  _403
REMARK  167  A    between atoms: _403  and  _404
REMARK  168  A    between atoms: _403  and  _406
REMARK  169  A    between atoms: _406  and  _407
REMARK  170  A    between atoms: _412  and  _413
REMARK  171  A    between atoms: _415  and  _417
REMARK  172  A    between atoms: _417  and  _418
REMARK  173  A    between atoms: _417  and  _420
REMARK  174  A    between atoms: _420  and  _421
REMARK  175  A    between atoms: _424  and  _426
REMARK  176  A    between atoms: _426  and  _427
REMARK  177  A    between atoms: _426  and  _429
REMARK  178  A    between atoms: _429  and  _430
REMARK  179  A    between atoms: _433  and  _435
REMARK  180  A    between atoms: _435  and  _436
REMARK  181  A    between atoms: _435  and  _438
REMARK  182  A    between atoms: _438  and  _439
REMARK  183  A    between atoms: _439  and  _440
REMARK  184  A    between atoms: _440  and  _441
REMARK  185  A    between atoms: _450  and  _452
REMARK  186  A    between atoms: _452  and  _453
REMARK  187  A    between atoms: _452  and  _455
REMARK  188  A    between atoms: _458  and  _460
REMARK  189  A    between atoms: _460  and  _461
REMARK  190  A    between atoms: _460  and  _463
REMARK  191  A    between atoms: _463  and  _464
REMARK  192  A    between atoms: _467  and  _469
REMARK  193  A    between atoms: _469  and  _470
REMARK  194  A    between atoms: _469  and  _472
REMARK  195  A    between atoms: _474  and  _476
REMARK  196  A    between atoms: _476  and  _477
REMARK  197  A    between atoms: _476  and  _479
REMARK  198  A    between atoms: _479  and  _480
REMARK  199  A    between atoms: _490  and  _492
REMARK  200  A    between atoms: _492  and  _493
REMARK  201  A    between atoms: _492  and  _495
REMARK  202  A    between atoms: _495  and  _496
REMARK  203  A    between atoms: _496  and  _497
REMARK  204  A    between atoms: _497  and  _498
REMARK  205  A    between atoms: _498  and  _499
REMARK  206  A    between atoms: _503  and  _505
REMARK  207  A    between atoms: _505  and  _506
REMARK  208  A    between atoms: _505  and  _508
REMARK  209  A    between atoms: _508  and  _509
REMARK  210  A    between atoms: _512  and  _513
REMARK  211  A    between atoms: _519  and  _520
REMARK  212  A    between atoms: _525  and  _527
REMARK  213  A    between atoms: _527  and  _528
REMARK  214  A    between atoms: _527  and  _530
REMARK  215  A    between atoms: _530  and  _531
REMARK  216  A    between atoms: _531  and  _532
REMARK  217  A    between atoms: _535  and  _537
REMARK  218  A    between atoms: _537  and  _538
REMARK  219  A    between atoms: _537  and  _540
REMARK  220  A    between atoms: _540  and  _541
REMARK  221  A    between atoms: _541  and  _542
REMARK  222  A    between atoms: _542  and  _543
REMARK  223  A    between atoms: _552  and  _554
REMARK  224  A    between atoms: _554  and  _555
REMARK  225  A    between atoms: _554  and  _557
REMARK  226  A    between atoms: _557  and  _558
REMARK  227  A    between atoms: _561  and  _563
REMARK  228  A    between atoms: _563  and  _564
REMARK  229  A    between atoms: _563  and  _566
REMARK  230  A    between atoms: _566  and  _567
REMARK  231  A    between atoms: _569  and  _571
REMARK  232  A    between atoms: _571  and  _572
REMARK  233  A    between atoms: _571  and  _574
REMARK  234  A    between atoms: _574  and  _575
REMARK  235  A    between atoms: _575  and  _576
REMARK  236  A    between atoms: _576  and  _577
REMARK  237  A    between atoms: _577  and  _578
REMARK  238  A    between atoms: _582  and  _584
REMARK  239  A    between atoms: _584  and  _585
REMARK  240  A    between atoms: _584  and  _587
REMARK  241  A    between atoms: _587  and  _588
REMARK  242  A    between atoms: _591  and  _593
REMARK  243  A    between atoms: _593  and  _594
REMARK  244  A    between atoms: _596  and  _598
REMARK  245  A    between atoms: _598  and  _599
REMARK  246  A    between atoms: _598  and  _601
REMARK  247  A    between atoms: _601  and  _602
REMARK  248  A    between atoms: _604  and  _606
REMARK  249  A    between atoms: _606  and  _607
REMARK  250  A    between atoms: _609  and  _611
REMARK  251  A    between atoms: _611  and  _612
REMARK  252  A    between atoms: _611  and  _614
REMARK  253  A    between atoms: _614  and  _615
REMARK  254  A    between atoms: _620  and  _622
REMARK  255  A    between atoms: _622  and  _623
REMARK  256  A    between atoms: _622  and  _625
REMARK  257  A    between atoms: _625  and  _626
REMARK  258  A    between atoms: _629  and  _631
REMARK  259  A    between atoms: _631  and  _632
REMARK  260  A    between atoms: _631  and  _634
REMARK  261  A    between atoms: _634  and  _635
REMARK  262  A    between atoms: _641  and  _643
REMARK  263  A    between atoms: _643  and  _644
REMARK  264  A    between atoms: _643  and  _646
REMARK  265  A    between atoms: _646  and  _647
REMARK  266  A    between atoms: _647  and  _648
REMARK  267  A    between atoms: _651  and  _653
REMARK  268  A    between atoms: _653  and  _654
REMARK  269  A    between atoms: _653  and  _656
REMARK  270  A    between atoms: _656  and  _657
REMARK  271  A    between atoms: _657  and  _658
REMARK  272  A    between atoms: _663  and  _665
REMARK  273  A    between atoms: _665  and  _666
REMARK  274  A    between atoms: _665  and  _668
REMARK  275  A    between atoms: _668  and  _669
REMARK  276  A    between atoms: _669  and  _670
REMARK  277  A    between atoms: _670  and  _671
REMARK  278  A    between atoms: _680  and  _682
REMARK  279  A    between atoms: _682  and  _683
REMARK  280  A    between atoms: _682  and  _685
REMARK  281  A    between atoms: _685  and  _686
REMARK  282  A    between atoms: _686  and  _687
REMARK  283  A    between atoms: _687  and  _688
REMARK  284  A    between atoms: _697  and  _699
REMARK  285  A    between atoms: _699  and  _700
REMARK  286  A    between atoms: _699  and  _702
REMARK  287  A    between atoms: _702  and  _703
REMARK  288  A    between atoms: _708  and  _709
REMARK  289  A    between atoms: _711  and  _713
REMARK  290  A    between atoms: _713  and  _714
REMARK  291  A    between atoms: _713  and  _716
REMARK  292  A    between atoms: _716  and  _717
REMARK  293  A    between atoms: _720  and  _722
REMARK  294  A    between atoms: _722  and  _723
REMARK  295  A    between atoms: _722  and  _725
REMARK  296  A    between atoms: _725  and  _726
REMARK  297  A    between atoms: _726  and  _727
REMARK  298  A    between atoms: _727  and  _728
REMARK  299  A    between atoms: _728  and  _729
REMARK  300  A    between atoms: _733  and  _735
REMARK  301  A    between atoms: _735  and  _736
REMARK  302  A    between atoms: _735  and  _738
REMARK  303  A    between atoms: _738  and  _739
REMARK  304  A    between atoms: _744  and  _746
REMARK  305  A    between atoms: _746  and  _747
REMARK  306  A    between atoms: _746  and  _749
REMARK  307  A    between atoms: _749  and  _750
REMARK  308  A    between atoms: _760  and  _762
REMARK  309  A    between atoms: _762  and  _763
REMARK  310  A    between atoms: _762  and  _765
REMARK  311  A    between atoms: _765  and  _766
REMARK  312  A    between atoms: _766  and  _767
REMARK  313  A    between atoms: _770  and  _772
REMARK  314  A    between atoms: _772  and  _773
REMARK  315  A    between atoms: _772  and  _775
REMARK  316  A    between atoms: _775  and  _776
REMARK  317  A    between atoms: _779  and  _781
REMARK  318  A    between atoms: _781  and  _782
REMARK  319  A    between atoms: _781  and  _784
REMARK  320  A    between atoms: _784  and  _785
REMARK  321  A    between atoms: _790  and  _792
REMARK  322  A    between atoms: _792  and  _793
REMARK  323  A    between atoms: _792  and  _795
REMARK  324  A    between atoms: _795  and  _796
REMARK  325  A    between atoms: _802  and  _804
REMARK  326  A    between atoms: _804  and  _805
REMARK  327  A    between atoms: _804  and  _807
REMARK  328  A    between atoms: _807  and  _808
REMARK  329  A    between atoms: _810  and  _812
REMARK  330  A    between atoms: _812  and  _813
REMARK  331  A    between atoms: _815  and  _817
REMARK  332  A    between atoms: _817  and  _818
REMARK  333  A    between atoms: _817  and  _820
REMARK  334  A    between atoms: _820  and  _821
REMARK  335  A    between atoms: _826  and  _827
REMARK  336  A    between atoms: _829  and  _831
REMARK  337  A    between atoms: _831  and  _832
REMARK  338  A    between atoms: _831  and  _834
REMARK  339  A    between atoms: _834  and  _835
REMARK  340  A    between atoms: _840  and  _841
REMARK  341  A    between atoms: _843  and  _845
REMARK  342  A    between atoms: _845  and  _846
REMARK  343  A    between atoms: _845  and  _848
REMARK  344  A    between atoms: _848  and  _849
REMARK  345  A    between atoms: _853  and  ZN_1037
REMARK  346  A    between atoms: _854  and  _856
REMARK  347  A    between atoms: _856  and  _857
REMARK  348  A    between atoms: _856  and  _859
REMARK  349  A    between atoms: _859  and  _860
REMARK  350  A    between atoms: _860  and  _861
REMARK  351  A    between atoms: _864  and  _866
REMARK  352  A    between atoms: _866  and  _867
REMARK  353  A    between atoms: _866  and  _869
REMARK  354  A    between atoms: _869  and  _870
REMARK  355  A    between atoms: _870  and  _871
REMARK  356  A    between atoms: _871  and  _872
REMARK  357  A    between atoms: _881  and  _883
REMARK  358  A    between atoms: _883  and  _884
REMARK  359  A    between atoms: _883  and  _886
REMARK  360  A    between atoms: _886  and  _887
REMARK  361  A    between atoms: _887  and  _888
REMARK  362  A    between atoms: _888  and  _889
REMARK  363  A    between atoms: _889  and  _890
REMARK  364  A    between atoms: _894  and  _896
REMARK  365  A    between atoms: _896  and  _897
REMARK  366  A    between atoms: _896  and  _899
REMARK  367  A    between atoms: _899  and  _900
REMARK  368  A    between atoms: _905  and  _906
REMARK  369  A    between atoms: _908  and  _910
REMARK  370  A    between atoms: _910  and  _911
REMARK  371  A    between atoms: _910  and  _913
REMARK  372  A    between atoms: _913  and  _914
REMARK  373  A    between atoms: _914  and  _915
REMARK  374  A    between atoms: _915  and  _916
REMARK  375  A    between atoms: _916  and  _917
REMARK  376  A    between atoms: _921  and  _923
REMARK  377  A    between atoms: _923  and  _924
REMARK  378  A    between atoms: _923  and  _926
REMARK  379  A    between atoms: _926  and  _927
REMARK  380  A    between atoms: _932  and  _933
REMARK  381  A    between atoms: _935  and  _937
REMARK  382  A    between atoms: _937  and  _938
REMARK  383  A    between atoms: _937  and  _940
REMARK  384  A    between atoms: _940  and  _941
REMARK  385  A    between atoms: _946  and  _947
REMARK  386  A    between atoms: _949  and  _951
REMARK  387  A    between atoms: _951  and  _952
REMARK  388  A    between atoms: _956  and  _957
REMARK  389  A    between atoms: _962  and  _964
REMARK  390  A    between atoms: _964  and  _965
REMARK  391  A    between atoms: _964  and  _967
REMARK  392  A    between atoms: _967  and  _968
REMARK  393  A    between atoms: _970  and  _972
REMARK  394  A    between atoms: _972  and  _973
REMARK  395  A    between atoms: _972  and  _975
REMARK  396  A    between atoms: _975  and  _976
REMARK  397  A    between atoms: _981  and  _983
REMARK  398  A    between atoms: _983  and  _984
REMARK  399  A    between atoms: _983  and  _986
REMARK  400  A    between atoms: _986  and  _987
REMARK  401  A    between atoms: _987  and  _988
REMARK  402  A    between atoms: _988  and  _989
REMARK  403  A    between atoms: _989  and  _990
REMARK  404  A    between atoms: _994  and  _996
REMARK  405  A    between atoms: _996  and  _997
REMARK  406  A    between atoms: _996  and  _999
REMARK  407  A    between atoms: _999  and  _1000
REMARK  408  A    between atoms: _1005  and  _1006
REMARK  409  A    between atoms: _1008  and  _1010
REMARK  410  A    between atoms: _1010  and  _1011
REMARK  411  A    between atoms: _1014  and  _1016
REMARK  412  A    between atoms: _1016  and  _1017
REMARK  413  A    between atoms: _1019  and  _1021
REMARK  414  A    between atoms: _1021  and  _1022
REMARK  415  A    between atoms: _1021  and  _1024
REMARK  416  A    between atoms: _1024  and  _1025
REMARK  417  A    between atoms: _1025  and  _1026
REMARK  418  A    between atoms: _1029  and  _1031
REMARK  419  A    between atoms: _1031  and  _1032
REMARK  420  A    between atoms: _1031  and  _1034
REMARK  421  A    between atoms: _1034  and  _1035
REMARK                            x       y       z     vdW  Elec       q    Type
REMARK                         _______ _______ _______ _____ _____    ______ ____
ROOT
ATOM      1  O   HOH     1      29.305  60.752  50.467  0.00  0.00    +0.000 OA
ENDROOT
TORSDOF 0
REMARK  Name = ../refined-set-2016/2xef/2xef_pocket.pdb
REMARK  421 active torsions:
REMARK  status: ('A' for Active; 'I' for Inactive)
REMARK    1  A    between atoms: _1  and  _3
REMARK    2  A    between atoms: _3  and  _4
REMARK    3  A    between atoms: _7  and  _9
REMARK    4  A    between atoms: _9  and  _10
REMARK    5  A    between atoms: _9  and  _12
REMARK    6  A    between atoms: _12  and  _13
REMARK    7  A    between atoms: _19  and  _21
REMARK    8  A    between atoms: _21  and  _22
REMARK    9  A    between atoms: _21  and  _24
REMARK   10  A    between atoms: _24  and  _25
REMARK   11  A    between atoms: _30  and  _31
REMARK   12  A    between atoms: _33  and  _35
REMARK   13  A    between atoms: _35  and  _36
REMARK   14  A    between atoms: _38  and  _40
REMARK   15  A    between atoms: _40  and  _41
REMARK   16  A    between atoms: _40  and  _43
REMARK   17  A    between atoms: _43  and  _44
REMARK   18  A    between atoms: _44  and  _45
REMARK   19  A    between atoms: _45  and  _46
REMARK   20  A    between atoms: _46  and  _47
REMARK   21  A    between atoms: _51  and  _53
REMARK   22  A    between atoms: _53  and  _54
REMARK   23  A    between atoms: _53  and  _56
REMARK   24  A    between atoms: _59  and  _61
REMARK   25  A    between atoms: _61  and  _62
REMARK   26  A    between atoms: _61  and  _64
REMARK   27  A    between atoms: _64  and  _65
REMARK   28  A    between atoms: _71  and  _73
REMARK   29  A    between atoms: _73  and  _74
REMARK   30  A    between atoms: _73  and  _76
REMARK   31  A    between atoms: _76  and  _77
REMARK   32  A    between atoms: _77  and  _78
REMARK   33  A    between atoms: _78  and  _79
REMARK   34  A    between atoms: _88  and  _90
REMARK   35  A    between atoms: _90  and  _91
REMARK   36  A    between atoms: _93  and  _95
REMARK   37  A    between atoms: _95  and  _96
REMARK   38  A    between atoms: _95  and  _98
REMARK   39  A    between atoms: _98  and  _99
REMARK   40  A    between atoms: _99  and  _100
REMARK   41  A    between atoms: _100  and  _101
REMARK   42  A    between atoms: _101  and  _102
REMARK   43  A    between atoms: _106  and  _108
REMARK   44  A    between atoms: _108  and  _109
REMARK   45  A    between atoms: _108  and  _111
REMARK   46  A    between atoms: _111  and  _112
REMARK   47  A    between atoms: _117  and  _118
REMARK   48  A    between atoms: _120  and  _122
REMARK   49  A    between atoms: _122  and  _123
REMARK   50  A    between atoms: _122  and  _125
REMARK   51  A    between atoms: _125  and  _126
REMARK   52  A    between atoms: _126  and  _127
REMARK   53  A    between atoms: _132  and  _134
REMARK   54  A    between atoms: _134  and  _135
REMARK   55  A    between atoms: _134  and  _137
REMARK   56  A    between atoms: _137  and  _138
REMARK   57  A    between atoms: _138  and  _139
REMARK   58  A    between atoms: _139  and  _140
REMARK   59  A    between atoms: _149  and  _151
REMARK   60  A    between atoms: _151  and  _152
REMARK   61  A    between atoms: _154  and  _156
REMARK   62  A    between atoms: _156  and  _157
REMARK   63  A    between atoms: _156  and  _159
REMARK   64  A    between atoms: _159  and  _160
REMARK   65  A    between atoms: _165  and  _167
REMARK   66  A    between atoms: _167  and  _168
REMARK   67  A    between atoms: _167  and  _170
REMARK   68  A    between atoms: _170  and  _171
REMARK   69  A    between atoms: _174  and  _176
REMARK   70  A    between atoms: _176  and  _177
REMARK   71  A    between atoms: _176  and  _179
REMARK   72  A    between atoms: _179  and  _180
REMARK   73  A    between atoms: _183  and  _185
REMARK   74  A    between atoms: _185  and  _186
REMARK   75  A    between atoms: _185  and  _188
REMARK   76  A    between atoms: _188  and  _189
REMARK   77  A    between atoms: _194  and  _196
REMARK   78  A    between atoms: _196  and  _197
REMARK   79  A    between atoms: _196  and  _199
REMARK   80  A    between atoms: _199  and  _200
REMARK   81  A    between atoms: _203  and  _205
REMARK   82  A    between atoms: _205  and  _206
REMARK   83  A    between atoms: _205  and  _208
REMARK   84  A    between atoms: _208  and  _209
REMARK   85  A    between atoms: _214  and  _216
REMARK   86  A    between atoms: _216  and  _217
REMARK   87  A    between atoms: _219  and  _221
REMARK   88  A    between atoms: _221  and  _222
REMARK   89  A    between atoms: _224  and  _226
REMARK   90  A    between atoms: _226  and  _227
REMARK   91  A    between atoms: _226  and  _229
REMARK   92  A    between atoms: _229  and  _230
REMARK   93  A    between atoms: _234  and  ZN_1038
REMARK   94  A    between atoms: _235  and  _237
REMARK   95  A    between atoms: _237  and  _238
REMARK   96  A    between atoms: _237  and  _240
REMARK   97  A    between atoms: _240  and  _241
REMARK   98  A    between atoms: _244  and  _246
REMARK   99  A    between atoms: _246  and  _247
REMARK  100  A    between atoms: _246  and  _249
REMARK  101  A    between atoms: _249  and  _250
REMARK  102  A    between atoms: _260  and  _262
REMARK  103  A    between atoms: _262  and  _263
REMARK  104  A    between atoms: _262  and  _265
REMARK  105  A    between atoms: _265  and  _266
REMARK  106  A    between atoms: _269  and  _271
REMARK  107  A    between atoms: _271  and  _272
REMARK  108  A    between atoms: _271  and  _274
REMARK  109  A    between atoms: _274  and  _275
REMARK  110  A    between atoms: _279  and  _280
REMARK  111  A    between atoms: _285  and  _287
REMARK  112  A    between atoms: _287  and  _288
REMARK  113  A    between atoms: _291  and  _293
REMARK  114  A    between atoms: _293  and  _294
REMARK  115  A    between atoms: _293  and  _296
REMARK  116  A    between atoms: _296  and  _297
REMARK  117  A    between atoms: _297  and  _298
REMARK  118  A    between atoms: _301  and  _303
REMARK  119  A    between atoms: _303  and  _304
REMARK  120  A    between atoms: _303  and  _306
REMARK  121  A    between atoms: _306  and  _307
REMARK  122  A    between atoms: _307  and  _308
REMARK  123  A    between atoms: _308  and  _310
REMARK  124  A    between atoms: _310  and  ZN_1037
REMARK  125  A    between atoms: _311  and  _313
REMARK  126  A    between atoms: _313  and  _314
REMARK  127  A    between atoms: _313  and  _316
REMARK  128  A    between atoms: _316  and  _317
REMARK  129  A    between atoms: _323  and  _325
REMARK  130  A    between atoms: _325  and  _326
REMARK  131  A    between atoms: _328  and  _330
REMARK  132  A    between atoms: _330  and  _331
REMARK  133  A    between atoms: _330  and  _333
REMARK  134  A    between atoms: _333  and  _334
REMARK  135  A    between atoms: _337  and  _339
REMARK  136  A    between atoms: _339  and  _340
REMARK  137  A    between atoms: _339  and  _342
REMARK  138  A    between atoms: _342  and  _343
REMARK  139  A    between atoms: _346  and  _348
REMARK  140  A    between atoms: _348  and  _349
REMARK  141  A    between atoms: _348  and  _351
REMARK  142  A    between atoms: _351  and  _352
REMARK  143  A    between atoms: _357  and  _359
REMARK  144  A    between atoms: _359  and  _360
REMARK  145  A    between atoms: _359  and  _362
REMARK  146  A    between atoms: _362  and  _363
REMARK  147  A    between atoms: _363  and  _365
REMARK  148  A    between atoms: _365  and  ZN_1038
REMARK  149  A    between atoms: _366  and  _368
REMARK  150  A    between atoms: _368  and  _369
REMARK  151  A    between atoms: _368  and  _371
REMARK  152  A    between atoms: _371  and  _372
REMARK  153  A    between atoms: _374  and  _376
REMARK  154  A    between atoms: _376  and  _377
REMARK  155  A    between atoms: _376  and  _379
REMARK  156  A    between atoms: _379  and  _380
REMARK  157  A    between atoms: _382  and  _384
REMARK  158  A    between atoms: _384  and  _385
REMARK  159  A    between atoms: _384  and  _387
REMARK  160  A    between atoms: _387  and  _388
REMARK  161  A    between atoms: _391  and  _393
REMARK  162  A    between atoms: _393  and  _394
REMARK  163  A    between atoms: _393  and  _396
REMARK  164  A    between atoms: _396  and  _397
REMARK  165  A    between atoms: _397  and  _398
REMARK  166  A    between atoms: _401  and  _403
REMARK  167  A    between atoms: _403  and  _404
REMARK  168  A    between atoms: _403  and  _406
REMARK  169  A    between atoms: _406  and  _407
REMARK  170  A    between atoms: _412  and  _413
REMARK  171  A    between atoms: _415  and  _417
REMARK  172  A    between atoms: _417  and  _418
REMARK  173  A    between atoms: _417  and  _420
REMARK  174  A    between atoms: _420  and  _421
REMARK  175  A    between atoms: _424  and  _426
REMARK  176  A    between atoms: _426  and  _427
REMARK  177  A    between atoms: _426  and  _429
REMARK  178  A    between atoms: _429  and  _430
REMARK  179  A    between atoms: _433  and  _435
REMARK  180  A    between atoms: _435  and  _436
REMARK  181  A    between atoms: _435  and  _438
REMARK  182  A    between atoms: _438  and  _439
REMARK  183  A    between atoms: _439  and  _440
REMARK  184  A    between atoms: _440  and  _441
REMARK  185  A    between atoms: _450  and  _452
REMARK  186  A    between atoms: _452  and  _453
REMARK  187  A    between atoms: _452  and  _455
REMARK  188  A    between atoms: _458  and  _460
REMARK  189  A    between atoms: _460  and  _461
REMARK  190  A    between atoms: _460  and  _463
REMARK  191  A    between atoms: _463  and  _464
REMARK  192  A    between atoms: _467  and  _469
REMARK  193  A    between atoms: _469  and  _470
REMARK  194  A    between atoms: _469  and  _472
REMARK  195  A    between atoms: _474  and  _476
REMARK  196  A    between atoms: _476  and  _477
REMARK  197  A    between atoms: _476  and  _479
REMARK  198  A    between atoms: _479  and  _480
REMARK  199  A    between atoms: _490  and  _492
REMARK  200  A    between atoms: _492  and  _493
REMARK  201  A    between atoms: _492  and  _495
REMARK  202  A    between atoms: _495  and  _496
REMARK  203  A    between atoms: _496  and  _497
REMARK  204  A    between atoms: _497  and  _498
REMARK  205  A    between atoms: _498  and  _499
REMARK  206  A    between atoms: _503  and  _505
REMARK  207  A    between atoms: _505  and  _506
REMARK  208  A    between atoms: _505  and  _508
REMARK  209  A    between atoms: _508  and  _509
REMARK  210  A    between atoms: _512  and  _513
REMARK  211  A    between atoms: _519  and  _520
REMARK  212  A    between atoms: _525  and  _527
REMARK  213  A    between atoms: _527  and  _528
REMARK  214  A    between atoms: _527  and  _530
REMARK  215  A    between atoms: _530  and  _531
REMARK  216  A    between atoms: _531  and  _532
REMARK  217  A    between atoms: _535  and  _537
REMARK  218  A    between atoms: _537  and  _538
REMARK  219  A    between atoms: _537  and  _540
REMARK  220  A    between atoms: _540  and  _541
REMARK  221  A    between atoms: _541  and  _542
REMARK  222  A    between atoms: _542  and  _543
REMARK  223  A    between atoms: _552  and  _554
REMARK  224  A    between atoms: _554  and  _555
REMARK  225  A    between atoms: _554  and  _557
REMARK  226  A    between atoms: _557  and  _558
REMARK  227  A    between atoms: _561  and  _563
REMARK  228  A    between atoms: _563  and  _564
REMARK  229  A    between atoms: _563  and  _566
REMARK  230  A    between atoms: _566  and  _567
REMARK  231  A    between atoms: _569  and  _571
REMARK  232  A    between atoms: _571  and  _572
REMARK  233  A    between atoms: _571  and  _574
REMARK  234  A    between atoms: _574  and  _575
REMARK  235  A    between atoms: _575  and  _576
REMARK  236  A    between atoms: _576  and  _577
REMARK  237  A    between atoms: _577  and  _578
REMARK  238  A    between atoms: _582  and  _584
REMARK  239  A    between atoms: _584  and  _585
REMARK  240  A    between atoms: _584  and  _587
REMARK  241  A    between atoms: _587  and  _588
REMARK  242  A    between atoms: _591  and  _593
REMARK  243  A    between atoms: _593  and  _594
REMARK  244  A    between atoms: _596  and  _598
REMARK  245  A    between atoms: _598  and  _599
REMARK  246  A    between atoms: _598  and  _601
REMARK  247  A    between atoms: _601  and  _602
REMARK  248  A    between atoms: _604  and  _606
REMARK  249  A    between atoms: _606  and  _607
REMARK  250  A    between atoms: _609  and  _611
REMARK  251  A    between atoms: _611  and  _612
REMARK  252  A    between atoms: _611  and  _614
REMARK  253  A    between atoms: _614  and  _615
REMARK  254  A    between atoms: _620  and  _622
REMARK  255  A    between atoms: _622  and  _623
REMARK  256  A    between atoms: _622  and  _625
REMARK  257  A    between atoms: _625  and  _626
REMARK  258  A    between atoms: _629  and  _631
REMARK  259  A    between atoms: _631  and  _632
REMARK  260  A    between atoms: _631  and  _634
REMARK  261  A    between atoms: _634  and  _635
REMARK  262  A    between atoms: _641  and  _643
REMARK  263  A    between atoms: _643  and  _644
REMARK  264  A    between atoms: _643  and  _646
REMARK  265  A    between atoms: _646  and  _647
REMARK  266  A    between atoms: _647  and  _648
REMARK  267  A    between atoms: _651  and  _653
REMARK  268  A    between atoms: _653  and  _654
REMARK  269  A    between atoms: _653  and  _656
REMARK  270  A    between atoms: _656  and  _657
REMARK  271  A    between atoms: _657  and  _658
REMARK  272  A    between atoms: _663  and  _665
REMARK  273  A    between atoms: _665  and  _666
REMARK  274  A    between atoms: _665  and  _668
REMARK  275  A    between atoms: _668  and  _669
REMARK  276  A    between atoms: _669  and  _670
REMARK  277  A    between atoms: _670  and  _671
REMARK  278  A    between atoms: _680  and  _682
REMARK  279  A    between atoms: _682  and  _683
REMARK  280  A    between atoms: _682  and  _685
REMARK  281  A    between atoms: _685  and  _686
REMARK  282  A    between atoms: _686  and  _687
REMARK  283  A    between atoms: _687  and  _688
REMARK  284  A    between atoms: _697  and  _699
REMARK  285  A    between atoms: _699  and  _700
REMARK  286  A    between atoms: _699  and  _702
REMARK  287  A    between atoms: _702  and  _703
REMARK  288  A    between atoms: _708  and  _709
REMARK  289  A    between atoms: _711  and  _713
REMARK  290  A    between atoms: _713  and  _714
REMARK  291  A    between atoms: _713  and  _716
REMARK  292  A    between atoms: _716  and  _717
REMARK  293  A    between atoms: _720  and  _722
REMARK  294  A    between atoms: _722  and  _723
REMARK  295  A    between atoms: _722  and  _725
REMARK  296  A    between atoms: _725  and  _726
REMARK  297  A    between atoms: _726  and  _727
REMARK  298  A    between atoms: _727  and  _728
REMARK  299  A    between atoms: _728  and  _729
REMARK  300  A    between atoms: _733  and  _735
REMARK  301  A    between atoms: _735  and  _736
REMARK  302  A    between atoms: _735  and  _738
REMARK  303  A    between atoms: _738  and  _739
REMARK  304  A    between atoms: _744  and  _746
REMARK  305  A    between atoms: _746  and  _747
REMARK  306  A    between atoms: _746  and  _749
REMARK  307  A    between atoms: _749  and  _750
REMARK  308  A    between atoms: _760  and  _762
REMARK  309  A    between atoms: _762  and  _763
REMARK  310  A    between atoms: _762  and  _765
REMARK  311  A    between atoms: _765  and  _766
REMARK  312  A    between atoms: _766  and  _767
REMARK  313  A    between atoms: _770  and  _772
REMARK  314  A    between atoms: _772  and  _773
REMARK  315  A    between atoms: _772  and  _775
REMARK  316  A    between atoms: _775  and  _776
REMARK  317  A    between atoms: _779  and  _781
REMARK  318  A    between atoms: _781  and  _782
REMARK  319  A    between atoms: _781  and  _784
REMARK  320  A    between atoms: _784  and  _785
REMARK  321  A    between atoms: _790  and  _792
REMARK  322  A    between atoms: _792  and  _793
REMARK  323  A    between atoms: _792  and  _795
REMARK  324  A    between atoms: _795  and  _796
REMARK  325  A    between atoms: _802  and  _804
REMARK  326  A    between atoms: _804  and  _805
REMARK  327  A    between atoms: _804  and  _807
REMARK  328  A    between atoms: _807  and  _808
REMARK  329  A    between atoms: _810  and  _812
REMARK  330  A    between atoms: _812  and  _813
REMARK  331  A    between atoms: _815  and  _817
REMARK  332  A    between atoms: _817  and  _818
REMARK  333  A    between atoms: _817  and  _820
REMARK  334  A    between atoms: _820  and  _821
REMARK  335  A    between atoms: _826  and  _827
REMARK  336  A    between atoms: _829  and  _831
REMARK  337  A    between atoms: _831  and  _832
REMARK  338  A    between atoms: _831  and  _834
REMARK  339  A    between atoms: _834  and  _835
REMARK  340  A    between atoms: _840  and  _841
REMARK  341  A    between atoms: _843  and  _845
REMARK  342  A    between atoms: _845  and  _846
REMARK  343  A    between atoms: _845  and  _848
REMARK  344  A    between atoms: _848  and  _849
REMARK  345  A    between atoms: _853  and  ZN_1037
REMARK  346  A    between atoms: _854  and  _856
REMARK  347  A    between atoms: _856  and  _857
REMARK  348  A    between atoms: _856  and  _859
REMARK  349  A    between atoms: _859  and  _860
REMARK  350  A    between atoms: _860  and  _861
REMARK  351  A    between atoms: _864  and  _866
REMARK  352  A    between atoms: _866  and  _867
REMARK  353  A    between atoms: _866  and  _869
REMARK  354  A    between atoms: _869  and  _870
REMARK  355  A    between atoms: _870  and  _871
REMARK  356  A    between atoms: _871  and  _872
REMARK  357  A    between atoms: _881  and  _883
REMARK  358  A    between atoms: _883  and  _884
REMARK  359  A    between atoms: _883  and  _886
REMARK  360  A    between atoms: _886  and  _887
REMARK  361  A    between atoms: _887  and  _888
REMARK  362  A    between atoms: _888  and  _889
REMARK  363  A    between atoms: _889  and  _890
REMARK  364  A    between atoms: _894  and  _896
REMARK  365  A    between atoms: _896  and  _897
REMARK  366  A    between atoms: _896  and  _899
REMARK  367  A    between atoms: _899  and  _900
REMARK  368  A    between atoms: _905  and  _906
REMARK  369  A    between atoms: _908  and  _910
REMARK  370  A    between atoms: _910  and  _911
REMARK  371  A    between atoms: _910  and  _913
REMARK  372  A    between atoms: _913  and  _914
REMARK  373  A    between atoms: _914  and  _915
REMARK  374  A    between atoms: _915  and  _916
REMARK  375  A    between atoms: _916  and  _917
REMARK  376  A    between atoms: _921  and  _923
REMARK  377  A    between atoms: _923  and  _924
REMARK  378  A    between atoms: _923  and  _926
REMARK  379  A    between atoms: _926  and  _927
REMARK  380  A    between atoms: _932  and  _933
REMARK  381  A    between atoms: _935  and  _937
REMARK  382  A    between atoms: _937  and  _938
REMARK  383  A    between atoms: _937  and  _940
REMARK  384  A    between atoms: _940  and  _941
REMARK  385  A    between atoms: _946  and  _947
REMARK  386  A    between atoms: _949  and  _951
REMARK  387  A    between atoms: _951  and  _952
REMARK  388  A    between atoms: _956  and  _957
REMARK  389  A    between atoms: _962  and  _964
REMARK  390  A    between atoms: _964  and  _965
REMARK  391  A    between atoms: _964  and  _967
REMARK  392  A    between atoms: _967  and  _968
REMARK  393  A    between atoms: _970  and  _972
REMARK  394  A    between atoms: _972  and  _973
REMARK  395  A    between atoms: _972  and  _975
REMARK  396  A    between atoms: _975  and  _976
REMARK  397  A    between atoms: _981  and  _983
REMARK  398  A    between atoms: _983  and  _984
REMARK  399  A    between atoms: _983  and  _986
REMARK  400  A    between atoms: _986  and  _987
REMARK  401  A    between atoms: _987  and  _988
REMARK  402  A    between atoms: _988  and  _989
REMARK  403  A    between atoms: _989  and  _990
REMARK  404  A    between atoms: _994  and  _996
REMARK  405  A    between atoms: _996  and  _997
REMARK  406  A    between atoms: _996  and  _999
REMARK  407  A    between atoms: _999  and  _1000
REMARK  408  A    between atoms: _1005  and  _1006
REMARK  409  A    between atoms: _1008  and  _1010
REMARK  410  A    between atoms: _1010  and  _1011
REMARK  411  A    between atoms: _1014  and  _1016
REMARK  412  A    between atoms: _1016  and  _1017
REMARK  413  A    between atoms: _1019  and  _1021
REMARK  414  A    between atoms: _1021  and  _1022
REMARK  415  A    between atoms: _1021  and  _1024
REMARK  416  A    between atoms: _1024  and  _1025
REMARK  417  A    between atoms: _1025  and  _1026
REMARK  418  A    between atoms: _1029  and  _1031
REMARK  419  A    between atoms: _1031  and  _1032
REMARK  420  A    between atoms: _1031  and  _1034
REMARK  421  A    between atoms: _1034  and  _1035
REMARK                            x       y       z     vdW  Elec       q    Type
REMARK                         _______ _______ _______ _____ _____    ______ ____
ROOT
ATOM      1  O   HOH     1      27.313  54.016  50.742  0.00  0.00    +0.000 OA
ENDROOT
TORSDOF 0
REMARK  Name = ../refined-set-2016/2xef/2xef_pocket.pdb
REMARK  421 active torsions:
REMARK  status: ('A' for Active; 'I' for Inactive)
REMARK    1  A    between atoms: _1  and  _3
REMARK    2  A    between atoms: _3  and  _4
REMARK    3  A    between atoms: _7  and  _9
REMARK    4  A    between atoms: _9  and  _10
REMARK    5  A    between atoms: _9  and  _12
REMARK    6  A    between atoms: _12  and  _13
REMARK    7  A    between atoms: _19  and  _21
REMARK    8  A    between atoms: _21  and  _22
REMARK    9  A    between atoms: _21  and  _24
REMARK   10  A    between atoms: _24  and  _25
REMARK   11  A    between atoms: _30  and  _31
REMARK   12  A    between atoms: _33  and  _35
REMARK   13  A    between atoms: _35  and  _36
REMARK   14  A    between atoms: _38  and  _40
REMARK   15  A    between atoms: _40  and  _41
REMARK   16  A    between atoms: _40  and  _43
REMARK   17  A    between atoms: _43  and  _44
REMARK   18  A    between atoms: _44  and  _45
REMARK   19  A    between atoms: _45  and  _46
REMARK   20  A    between atoms: _46  and  _47
REMARK   21  A    between atoms: _51  and  _53
REMARK   22  A    between atoms: _53  and  _54
REMARK   23  A    between atoms: _53  and  _56
REMARK   24  A    between atoms: _59  and  _61
REMARK   25  A    between atoms: _61  and  _62
REMARK   26  A    between atoms: _61  and  _64
REMARK   27  A    between atoms: _64  and  _65
REMARK   28  A    between atoms: _71  and  _73
REMARK   29  A    between atoms: _73  and  _74
REMARK   30  A    between atoms: _73  and  _76
REMARK   31  A    between atoms: _76  and  _77
REMARK   32  A    between atoms: _77  and  _78
REMARK   33  A    between atoms: _78  and  _79
REMARK   34  A    between atoms: _88  and  _90
REMARK   35  A    between atoms: _90  and  _91
REMARK   36  A    between atoms: _93  and  _95
REMARK   37  A    between atoms: _95  and  _96
REMARK   38  A    between atoms: _95  and  _98
REMARK   39  A    between atoms: _98  and  _99
REMARK   40  A    between atoms: _99  and  _100
REMARK   41  A    between atoms: _100  and  _101
REMARK   42  A    between atoms: _101  and  _102
REMARK   43  A    between atoms: _106  and  _108
REMARK   44  A    between atoms: _108  and  _109
REMARK   45  A    between atoms: _108  and  _111
REMARK   46  A    between atoms: _111  and  _112
REMARK   47  A    between atoms: _117  and  _118
REMARK   48  A    between atoms: _120  and  _122
REMARK   49  A    between atoms: _122  and  _123
REMARK   50  A    between atoms: _122  and  _125
REMARK   51  A    between atoms: _125  and  _126
REMARK   52  A    between atoms: _126  and  _127
REMARK   53  A    between atoms: _132  and  _134
REMARK   54  A    between atoms: _134  and  _135
REMARK   55  A    between atoms: _134  and  _137
REMARK   56  A    between atoms: _137  and  _138
REMARK   57  A    between atoms: _138  and  _139
REMARK   58  A    between atoms: _139  and  _140
REMARK   59  A    between atoms: _149  and  _151
REMARK   60  A    between atoms: _151  and  _152
REMARK   61  A    between atoms: _154  and  _156
REMARK   62  A    between atoms: _156  and  _157
REMARK   63  A    between atoms: _156  and  _159
REMARK   64  A    between atoms: _159  and  _160
REMARK   65  A    between atoms: _165  and  _167
REMARK   66  A    between atoms: _167  and  _168
REMARK   67  A    between atoms: _167  and  _170
REMARK   68  A    between atoms: _170  and  _171
REMARK   69  A    between atoms: _174  and  _176
REMARK   70  A    between atoms: _176  and  _177
REMARK   71  A    between atoms: _176  and  _179
REMARK   72  A    between atoms: _179  and  _180
REMARK   73  A    between atoms: _183  and  _185
REMARK   74  A    between atoms: _185  and  _186
REMARK   75  A    between atoms: _185  and  _188
REMARK   76  A    between atoms: _188  and  _189
REMARK   77  A    between atoms: _194  and  _196
REMARK   78  A    between atoms: _196  and  _197
REMARK   79  A    between atoms: _196  and  _199
REMARK   80  A    between atoms: _199  and  _200
REMARK   81  A    between atoms: _203  and  _205
REMARK   82  A    between atoms: _205  and  _206
REMARK   83  A    between atoms: _205  and  _208
REMARK   84  A    between atoms: _208  and  _209
REMARK   85  A    between atoms: _214  and  _216
REMARK   86  A    between atoms: _216  and  _217
REMARK   87  A    between atoms: _219  and  _221
REMARK   88  A    between atoms: _221  and  _222
REMARK   89  A    between atoms: _224  and  _226
REMARK   90  A    between atoms: _226  and  _227
REMARK   91  A    between atoms: _226  and  _229
REMARK   92  A    between atoms: _229  and  _230
REMARK   93  A    between atoms: _234  and  ZN_1038
REMARK   94  A    between atoms: _235  and  _237
REMARK   95  A    between atoms: _237  and  _238
REMARK   96  A    between atoms: _237  and  _240
REMARK   97  A    between atoms: _240  and  _241
REMARK   98  A    between atoms: _244  and  _246
REMARK   99  A    between atoms: _246  and  _247
REMARK  100  A    between atoms: _246  and  _249
REMARK  101  A    between atoms: _249  and  _250
REMARK  102  A    between atoms: _260  and  _262
REMARK  103  A    between atoms: _262  and  _263
REMARK  104  A    between atoms: _262  and  _265
REMARK  105  A    between atoms: _265  and  _266
REMARK  106  A    between atoms: _269  and  _271
REMARK  107  A    between atoms: _271  and  _272
REMARK  108  A    between atoms: _271  and  _274
REMARK  109  A    between atoms: _274  and  _275
REMARK  110  A    between atoms: _279  and  _280
REMARK  111  A    between atoms: _285  and  _287
REMARK  112  A    between atoms: _287  and  _288
REMARK  113  A    between atoms: _291  and  _293
REMARK  114  A    between atoms: _293  and  _294
REMARK  115  A    between atoms: _293  and  _296
REMARK  116  A    between atoms: _296  and  _297
REMARK  117  A    between atoms: _297  and  _298
REMARK  118  A    between atoms: _301  and  _303
REMARK  119  A    between atoms: _303  and  _304
REMARK  120  A    between atoms: _303  and  _306
REMARK  121  A    between atoms: _306  and  _307
REMARK  122  A    between atoms: _307  and  _308
REMARK  123  A    between atoms: _308  and  _310
REMARK  124  A    between atoms: _310  and  ZN_1037
REMARK  125  A    between atoms: _311  and  _313
REMARK  126  A    between atoms: _313  and  _314
REMARK  127  A    between atoms: _313  and  _316
REMARK  128  A    between atoms: _316  and  _317
REMARK  129  A    between atoms: _323  and  _325
REMARK  130  A    between atoms: _325  and  _326
REMARK  131  A    between atoms: _328  and  _330
REMARK  132  A    between atoms: _330  and  _331
REMARK  133  A    between atoms: _330  and  _333
REMARK  134  A    between atoms: _333  and  _334
REMARK  135  A    between atoms: _337  and  _339
REMARK  136  A    between atoms: _339  and  _340
REMARK  137  A    between atoms: _339  and  _342
REMARK  138  A    between atoms: _342  and  _343
REMARK  139  A    between atoms: _346  and  _348
REMARK  140  A    between atoms: _348  and  _349
REMARK  141  A    between atoms: _348  and  _351
REMARK  142  A    between atoms: _351  and  _352
REMARK  143  A    between atoms: _357  and  _359
REMARK  144  A    between atoms: _359  and  _360
REMARK  145  A    between atoms: _359  and  _362
REMARK  146  A    between atoms: _362  and  _363
REMARK  147  A    between atoms: _363  and  _365
REMARK  148  A    between atoms: _365  and  ZN_1038
REMARK  149  A    between atoms: _366  and  _368
REMARK  150  A    between atoms: _368  and  _369
REMARK  151  A    between atoms: _368  and  _371
REMARK  152  A    between atoms: _371  and  _372
REMARK  153  A    between atoms: _374  and  _376
REMARK  154  A    between atoms: _376  and  _377
REMARK  155  A    between atoms: _376  and  _379
REMARK  156  A    between atoms: _379  and  _380
REMARK  157  A    between atoms: _382  and  _384
REMARK  158  A    between atoms: _384  and  _385
REMARK  159  A    between atoms: _384  and  _387
REMARK  160  A    between atoms: _387  and  _388
REMARK  161  A    between atoms: _391  and  _393
REMARK  162  A    between atoms: _393  and  _394
REMARK  163  A    between atoms: _393  and  _396
REMARK  164  A    between atoms: _396  and  _397
REMARK  165  A    between atoms: _397  and  _398
REMARK  166  A    between atoms: _401  and  _403
REMARK  167  A    between atoms: _403  and  _404
REMARK  168  A    between atoms: _403  and  _406
REMARK  169  A    between atoms: _406  and  _407
REMARK  170  A    between atoms: _412  and  _413
REMARK  171  A    between atoms: _415  and  _417
REMARK  172  A    between atoms: _417  and  _418
REMARK  173  A    between atoms: _417  and  _420
REMARK  174  A    between atoms: _420  and  _421
REMARK  175  A    between atoms: _424  and  _426
REMARK  176  A    between atoms: _426  and  _427
REMARK  177  A    between atoms: _426  and  _429
REMARK  178  A    between atoms: _429  and  _430
REMARK  179  A    between atoms: _433  and  _435
REMARK  180  A    between atoms: _435  and  _436
REMARK  181  A    between atoms: _435  and  _438
REMARK  182  A    between atoms: _438  and  _439
REMARK  183  A    between atoms: _439  and  _440
REMARK  184  A    between atoms: _440  and  _441
REMARK  185  A    between atoms: _450  and  _452
REMARK  186  A    between atoms: _452  and  _453
REMARK  187  A    between atoms: _452  and  _455
REMARK  188  A    between atoms: _458  and  _460
REMARK  189  A    between atoms: _460  and  _461
REMARK  190  A    between atoms: _460  and  _463
REMARK  191  A    between atoms: _463  and  _464
REMARK  192  A    between atoms: _467  and  _469
REMARK  193  A    between atoms: _469  and  _470
REMARK  194  A    between atoms: _469  and  _472
REMARK  195  A    between atoms: _474  and  _476
REMARK  196  A    between atoms: _476  and  _477
REMARK  197  A    between atoms: _476  and  _479
REMARK  198  A    between atoms: _479  and  _480
REMARK  199  A    between atoms: _490  and  _492
REMARK  200  A    between atoms: _492  and  _493
REMARK  201  A    between atoms: _492  and  _495
REMARK  202  A    between atoms: _495  and  _496
REMARK  203  A    between atoms: _496  and  _497
REMARK  204  A    between atoms: _497  and  _498
REMARK  205  A    between atoms: _498  and  _499
REMARK  206  A    between atoms: _503  and  _505
REMARK  207  A    between atoms: _505  and  _506
REMARK  208  A    between atoms: _505  and  _508
REMARK  209  A    between atoms: _508  and  _509
REMARK  210  A    between atoms: _512  and  _513
REMARK  211  A    between atoms: _519  and  _520
REMARK  212  A    between atoms: _525  and  _527
REMARK  213  A    between atoms: _527  and  _528
REMARK  214  A    between atoms: _527  and  _530
REMARK  215  A    between atoms: _530  and  _531
REMARK  216  A    between atoms: _531  and  _532
REMARK  217  A    between atoms: _535  and  _537
REMARK  218  A    between atoms: _537  and  _538
REMARK  219  A    between atoms: _537  and  _540
REMARK  220  A    between atoms: _540  and  _541
REMARK  221  A    between atoms: _541  and  _542
REMARK  222  A    between atoms: _542  and  _543
REMARK  223  A    between atoms: _552  and  _554
REMARK  224  A    between atoms: _554  and  _555
REMARK  225  A    between atoms: _554  and  _557
REMARK  226  A    between atoms: _557  and  _558
REMARK  227  A    between atoms: _561  and  _563
REMARK  228  A    between atoms: _563  and  _564
REMARK  229  A    between atoms: _563  and  _566
REMARK  230  A    between atoms: _566  and  _567
REMARK  231  A    between atoms: _569  and  _571
REMARK  232  A    between atoms: _571  and  _572
REMARK  233  A    between atoms: _571  and  _574
REMARK  234  A    between atoms: _574  and  _575
REMARK  235  A    between atoms: _575  and  _576
REMARK  236  A    between atoms: _576  and  _577
REMARK  237  A    between atoms: _577  and  _578
REMARK  238  A    between atoms: _582  and  _584
REMARK  239  A    between atoms: _584  and  _585
REMARK  240  A    between atoms: _584  and  _587
REMARK  241  A    between atoms: _587  and  _588
REMARK  242  A    between atoms: _591  and  _593
REMARK  243  A    between atoms: _593  and  _594
REMARK  244  A    between atoms: _596  and  _598
REMARK  245  A    between atoms: _598  and  _599
REMARK  246  A    between atoms: _598  and  _601
REMARK  247  A    between atoms: _601  and  _602
REMARK  248  A    between atoms: _604  and  _606
REMARK  249  A    between atoms: _606  and  _607
REMARK  250  A    between atoms: _609  and  _611
REMARK  251  A    between atoms: _611  and  _612
REMARK  252  A    between atoms: _611  and  _614
REMARK  253  A    between atoms: _614  and  _615
REMARK  254  A    between atoms: _620  and  _622
REMARK  255  A    between atoms: _622  and  _623
REMARK  256  A    between atoms: _622  and  _625
REMARK  257  A    between atoms: _625  and  _626
REMARK  258  A    between atoms: _629  and  _631
REMARK  259  A    between atoms: _631  and  _632
REMARK  260  A    between atoms: _631  and  _634
REMARK  261  A    between atoms: _634  and  _635
REMARK  262  A    between atoms: _641  and  _643
REMARK  263  A    between atoms: _643  and  _644
REMARK  264  A    between atoms: _643  and  _646
REMARK  265  A    between atoms: _646  and  _647
REMARK  266  A    between atoms: _647  and  _648
REMARK  267  A    between atoms: _651  and  _653
REMARK  268  A    between atoms: _653  and  _654
REMARK  269  A    between atoms: _653  and  _656
REMARK  270  A    between atoms: _656  and  _657
REMARK  271  A    between atoms: _657  and  _658
REMARK  272  A    between atoms: _663  and  _665
REMARK  273  A    between atoms: _665  and  _666
REMARK  274  A    between atoms: _665  and  _668
REMARK  275  A    between atoms: _668  and  _669
REMARK  276  A    between atoms: _669  and  _670
REMARK  277  A    between atoms: _670  and  _671
REMARK  278  A    between atoms: _680  and  _682
REMARK  279  A    between atoms: _682  and  _683
REMARK  280  A    between atoms: _682  and  _685
REMARK  281  A    between atoms: _685  and  _686
REMARK  282  A    between atoms: _686  and  _687
REMARK  283  A    between atoms: _687  and  _688
REMARK  284  A    between atoms: _697  and  _699
REMARK  285  A    between atoms: _699  and  _700
REMARK  286  A    between atoms: _699  and  _702
REMARK  287  A    between atoms: _702  and  _703
REMARK  288  A    between atoms: _708  and  _709
REMARK  289  A    between atoms: _711  and  _713
REMARK  290  A    between atoms: _713  and  _714
REMARK  291  A    between atoms: _713  and  _716
REMARK  292  A    between atoms: _716  and  _717
REMARK  293  A    between atoms: _720  and  _722
REMARK  294  A    between atoms: _722  and  _723
REMARK  295  A    between atoms: _722  and  _725
REMARK  296  A    between atoms: _725  and  _726
REMARK  297  A    between atoms: _726  and  _727
REMARK  298  A    between atoms: _727  and  _728
REMARK  299  A    between atoms: _728  and  _729
REMARK  300  A    between atoms: _733  and  _735
REMARK  301  A    between atoms: _735  and  _736
REMARK  302  A    between atoms: _735  and  _738
REMARK  303  A    between atoms: _738  and  _739
REMARK  304  A    between atoms: _744  and  _746
REMARK  305  A    between atoms: _746  and  _747
REMARK  306  A    between atoms: _746  and  _749
REMARK  307  A    between atoms: _749  and  _750
REMARK  308  A    between atoms: _760  and  _762
REMARK  309  A    between atoms: _762  and  _763
REMARK  310  A    between atoms: _762  and  _765
REMARK  311  A    between atoms: _765  and  _766
REMARK  312  A    between atoms: _766  and  _767
REMARK  313  A    between atoms: _770  and  _772
REMARK  314  A    between atoms: _772  and  _773
REMARK  315  A    between atoms: _772  and  _775
REMARK  316  A    between atoms: _775  and  _776
REMARK  317  A    between atoms: _779  and  _781
REMARK  318  A    between atoms: _781  and  _782
REMARK  319  A    between atoms: _781  and  _784
REMARK  320  A    between atoms: _784  and  _785
REMARK  321  A    between atoms: _790  and  _792
REMARK  322  A    between atoms: _792  and  _793
REMARK  323  A    between atoms: _792  and  _795
REMARK  324  A    between atoms: _795  and  _796
REMARK  325  A    between atoms: _802  and  _804
REMARK  326  A    between atoms: _804  and  _805
REMARK  327  A    between atoms: _804  and  _807
REMARK  328  A    between atoms: _807  and  _808
REMARK  329  A    between atoms: _810  and  _812
REMARK  330  A    between atoms: _812  and  _813
REMARK  331  A    between atoms: _815  and  _817
REMARK  332  A    between atoms: _817  and  _818
REMARK  333  A    between atoms: _817  and  _820
REMARK  334  A    between atoms: _820  and  _821
REMARK  335  A    between atoms: _826  and  _827
REMARK  336  A    between atoms: _829  and  _831
REMARK  337  A    between atoms: _831  and  _832
REMARK  338  A    between atoms: _831  and  _834
REMARK  339  A    between atoms: _834  and  _835
REMARK  340  A    between atoms: _840  and  _841
REMARK  341  A    between atoms: _843  and  _845
REMARK  342  A    between atoms: _845  and  _846
REMARK  343  A    between atoms: _845  and  _848
REMARK  344  A    between atoms: _848  and  _849
REMARK  345  A    between atoms: _853  and  ZN_1037
REMARK  346  A    between atoms: _854  and  _856
REMARK  347  A    between atoms: _856  and  _857
REMARK  348  A    between atoms: _856  and  _859
REMARK  349  A    between atoms: _859  and  _860
REMARK  350  A    between atoms: _860  and  _861
REMARK  351  A    between atoms: _864  and  _866
REMARK  352  A    between atoms: _866  and  _867
REMARK  353  A    between atoms: _866  and  _869
REMARK  354  A    between atoms: _869  and  _870
REMARK  355  A    between atoms: _870  and  _871
REMARK  356  A    between atoms: _871  and  _872
REMARK  357  A    between atoms: _881  and  _883
REMARK  358  A    between atoms: _883  and  _884
REMARK  359  A    between atoms: _883  and  _886
REMARK  360  A    between atoms: _886  and  _887
REMARK  361  A    between atoms: _887  and  _888
REMARK  362  A    between atoms: _888  and  _889
REMARK  363  A    between atoms: _889  and  _890
REMARK  364  A    between atoms: _894  and  _896
REMARK  365  A    between atoms: _896  and  _897
REMARK  366  A    between atoms: _896  and  _899
REMARK  367  A    between atoms: _899  and  _900
REMARK  368  A    between atoms: _905  and  _906
REMARK  369  A    between atoms: _908  and  _910
REMARK  370  A    between atoms: _910  and  _911
REMARK  371  A    between atoms: _910  and  _913
REMARK  372  A    between atoms: _913  and  _914
REMARK  373  A    between atoms: _914  and  _915
REMARK  374  A    between atoms: _915  and  _916
REMARK  375  A    between atoms: _916  and  _917
REMARK  376  A    between atoms: _921  and  _923
REMARK  377  A    between atoms: _923  and  _924
REMARK  378  A    between atoms: _923  and  _926
REMARK  379  A    between atoms: _926  and  _927
REMARK  380  A    between atoms: _932  and  _933
REMARK  381  A    between atoms: _935  and  _937
REMARK  382  A    between atoms: _937  and  _938
REMARK  383  A    between atoms: _937  and  _940
REMARK  384  A    between atoms: _940  and  _941
REMARK  385  A    between atoms: _946  and  _947
REMARK  386  A    between atoms: _949  and  _951
REMARK  387  A    between atoms: _951  and  _952
REMARK  388  A    between atoms: _956  and  _957
REMARK  389  A    between atoms: _962  and  _964
REMARK  390  A    between atoms: _964  and  _965
REMARK  391  A    between atoms: _964  and  _967
REMARK  392  A    between atoms: _967  and  _968
REMARK  393  A    between atoms: _970  and  _972
REMARK  394  A    between atoms: _972  and  _973
REMARK  395  A    between atoms: _972  and  _975
REMARK  396  A    between atoms: _975  and  _976
REMARK  397  A    between atoms: _981  and  _983
REMARK  398  A    between atoms: _983  and  _984
REMARK  399  A    between atoms: _983  and  _986
REMARK  400  A    between atoms: _986  and  _987
REMARK  401  A    between atoms: _987  and  _988
REMARK  402  A    between atoms: _988  and  _989
REMARK  403  A    between atoms: _989  and  _990
REMARK  404  A    between atoms: _994  and  _996
REMARK  405  A    between atoms: _996  and  _997
REMARK  406  A    between atoms: _996  and  _999
REMARK  407  A    between atoms: _999  and  _1000
REMARK  408  A    between atoms: _1005  and  _1006
REMARK  409  A    between atoms: _1008  and  _1010
REMARK  410  A    between atoms: _1010  and  _1011
REMARK  411  A    between atoms: _1014  and  _1016
REMARK  412  A    between atoms: _1016  and  _1017
REMARK  413  A    between atoms: _1019  and  _1021
REMARK  414  A    between atoms: _1021  and  _1022
REMARK  415  A    between atoms: _1021  and  _1024
REMARK  416  A    between atoms: _1024  and  _1025
REMARK  417  A    between atoms: _1025  and  _1026
REMARK  418  A    between atoms: _1029  and  _1031
REMARK  419  A    between atoms: _1031  and  _1032
REMARK  420  A    between atoms: _1031  and  _1034
REMARK  421  A    between atoms: _1034  and  _1035
REMARK                            x       y       z     vdW  Elec       q    Type
REMARK                         _______ _______ _______ _____ _____    ______ ____
ROOT
ATOM      1  O   HOH     1      29.122  58.035  48.455  0.00  0.00    +0.000 OA
ENDROOT
TORSDOF 0
REMARK  Name = ../refined-set-2016/2xef/2xef_pocket.pdb
REMARK  421 active torsions:
REMARK  status: ('A' for Active; 'I' for Inactive)
REMARK    1  A    between atoms: _1  and  _3
REMARK    2  A    between atoms: _3  and  _4
REMARK    3  A    between atoms: _7  and  _9
REMARK    4  A    between atoms: _9  and  _10
REMARK    5  A    between atoms: _9  and  _12
REMARK    6  A    between atoms: _12  and  _13
REMARK    7  A    between atoms: _19  and  _21
REMARK    8  A    between atoms: _21  and  _22
REMARK    9  A    between atoms: _21  and  _24
REMARK   10  A    between atoms: _24  and  _25
REMARK   11  A    between atoms: _30  and  _31
REMARK   12  A    between atoms: _33  and  _35
REMARK   13  A    between atoms: _35  and  _36
REMARK   14  A    between atoms: _38  and  _40
REMARK   15  A    between atoms: _40  and  _41
REMARK   16  A    between atoms: _40  and  _43
REMARK   17  A    between atoms: _43  and  _44
REMARK   18  A    between atoms: _44  and  _45
REMARK   19  A    between atoms: _45  and  _46
REMARK   20  A    between atoms: _46  and  _47
REMARK   21  A    between atoms: _51  and  _53
REMARK   22  A    between atoms: _53  and  _54
REMARK   23  A    between atoms: _53  and  _56
REMARK   24  A    between atoms: _59  and  _61
REMARK   25  A    between atoms: _61  and  _62
REMARK   26  A    between atoms: _61  and  _64
REMARK   27  A    between atoms: _64  and  _65
REMARK   28  A    between atoms: _71  and  _73
REMARK   29  A    between atoms: _73  and  _74
REMARK   30  A    between atoms: _73  and  _76
REMARK   31  A    between atoms: _76  and  _77
REMARK   32  A    between atoms: _77  and  _78
REMARK   33  A    between atoms: _78  and  _79
REMARK   34  A    between atoms: _88  and  _90
REMARK   35  A    between atoms: _90  and  _91
REMARK   36  A    between atoms: _93  and  _95
REMARK   37  A    between atoms: _95  and  _96
REMARK   38  A    between atoms: _95  and  _98
REMARK   39  A    between atoms: _98  and  _99
REMARK   40  A    between atoms: _99  and  _100
REMARK   41  A    between atoms: _100  and  _101
REMARK   42  A    between atoms: _101  and  _102
REMARK   43  A    between atoms: _106  and  _108
REMARK   44  A    between atoms: _108  and  _109
REMARK   45  A    between atoms: _108  and  _111
REMARK   46  A    between atoms: _111  and  _112
REMARK   47  A    between atoms: _117  and  _118
REMARK   48  A    between atoms: _120  and  _122
REMARK   49  A    between atoms: _122  and  _123
REMARK   50  A    between atoms: _122  and  _125
REMARK   51  A    between atoms: _125  and  _126
REMARK   52  A    between atoms: _126  and  _127
REMARK   53  A    between atoms: _132  and  _134
REMARK   54  A    between atoms: _134  and  _135
REMARK   55  A    between atoms: _134  and  _137
REMARK   56  A    between atoms: _137  and  _138
REMARK   57  A    between atoms: _138  and  _139
REMARK   58  A    between atoms: _139  and  _140
REMARK   59  A    between atoms: _149  and  _151
REMARK   60  A    between atoms: _151  and  _152
REMARK   61  A    between atoms: _154  and  _156
REMARK   62  A    between atoms: _156  and  _157
REMARK   63  A    between atoms: _156  and  _159
REMARK   64  A    between atoms: _159  and  _160
REMARK   65  A    between atoms: _165  and  _167
REMARK   66  A    between atoms: _167  and  _168
REMARK   67  A    between atoms: _167  and  _170
REMARK   68  A    between atoms: _170  and  _171
REMARK   69  A    between atoms: _174  and  _176
REMARK   70  A    between atoms: _176  and  _177
REMARK   71  A    between atoms: _176  and  _179
REMARK   72  A    between atoms: _179  and  _180
REMARK   73  A    between atoms: _183  and  _185
REMARK   74  A    between atoms: _185  and  _186
REMARK   75  A    between atoms: _185  and  _188
REMARK   76  A    between atoms: _188  and  _189
REMARK   77  A    between atoms: _194  and  _196
REMARK   78  A    between atoms: _196  and  _197
REMARK   79  A    between atoms: _196  and  _199
REMARK   80  A    between atoms: _199  and  _200
REMARK   81  A    between atoms: _203  and  _205
REMARK   82  A    between atoms: _205  and  _206
REMARK   83  A    between atoms: _205  and  _208
REMARK   84  A    between atoms: _208  and  _209
REMARK   85  A    between atoms: _214  and  _216
REMARK   86  A    between atoms: _216  and  _217
REMARK   87  A    between atoms: _219  and  _221
REMARK   88  A    between atoms: _221  and  _222
REMARK   89  A    between atoms: _224  and  _226
REMARK   90  A    between atoms: _226  and  _227
REMARK   91  A    between atoms: _226  and  _229
REMARK   92  A    between atoms: _229  and  _230
REMARK   93  A    between atoms: _234  and  ZN_1038
REMARK   94  A    between atoms: _235  and  _237
REMARK   95  A    between atoms: _237  and  _238
REMARK   96  A    between atoms: _237  and  _240
REMARK   97  A    between atoms: _240  and  _241
REMARK   98  A    between atoms: _244  and  _246
REMARK   99  A    between atoms: _246  and  _247
REMARK  100  A    between atoms: _246  and  _249
REMARK  101  A    between atoms: _249  and  _250
REMARK  102  A    between atoms: _260  and  _262
REMARK  103  A    between atoms: _262  and  _263
REMARK  104  A    between atoms: _262  and  _265
REMARK  105  A    between atoms: _265  and  _266
REMARK  106  A    between atoms: _269  and  _271
REMARK  107  A    between atoms: _271  and  _272
REMARK  108  A    between atoms: _271  and  _274
REMARK  109  A    between atoms: _274  and  _275
REMARK  110  A    between atoms: _279  and  _280
REMARK  111  A    between atoms: _285  and  _287
REMARK  112  A    between atoms: _287  and  _288
REMARK  113  A    between atoms: _291  and  _293
REMARK  114  A    between atoms: _293  and  _294
REMARK  115  A    between atoms: _293  and  _296
REMARK  116  A    between atoms: _296  and  _297
REMARK  117  A    between atoms: _297  and  _298
REMARK  118  A    between atoms: _301  and  _303
REMARK  119  A    between atoms: _303  and  _304
REMARK  120  A    between atoms: _303  and  _306
REMARK  121  A    between atoms: _306  and  _307
REMARK  122  A    between atoms: _307  and  _308
REMARK  123  A    between atoms: _308  and  _310
REMARK  124  A    between atoms: _310  and  ZN_1037
REMARK  125  A    between atoms: _311  and  _313
REMARK  126  A    between atoms: _313  and  _314
REMARK  127  A    between atoms: _313  and  _316
REMARK  128  A    between atoms: _316  and  _317
REMARK  129  A    between atoms: _323  and  _325
REMARK  130  A    between atoms: _325  and  _326
REMARK  131  A    between atoms: _328  and  _330
REMARK  132  A    between atoms: _330  and  _331
REMARK  133  A    between atoms: _330  and  _333
REMARK  134  A    between atoms: _333  and  _334
REMARK  135  A    between atoms: _337  and  _339
REMARK  136  A    between atoms: _339  and  _340
REMARK  137  A    between atoms: _339  and  _342
REMARK  138  A    between atoms: _342  and  _343
REMARK  139  A    between atoms: _346  and  _348
REMARK  140  A    between atoms: _348  and  _349
REMARK  141  A    between atoms: _348  and  _351
REMARK  142  A    between atoms: _351  and  _352
REMARK  143  A    between atoms: _357  and  _359
REMARK  144  A    between atoms: _359  and  _360
REMARK  145  A    between atoms: _359  and  _362
REMARK  146  A    between atoms: _362  and  _363
REMARK  147  A    between atoms: _363  and  _365
REMARK  148  A    between atoms: _365  and  ZN_1038
REMARK  149  A    between atoms: _366  and  _368
REMARK  150  A    between atoms: _368  and  _369
REMARK  151  A    between atoms: _368  and  _371
REMARK  152  A    between atoms: _371  and  _372
REMARK  153  A    between atoms: _374  and  _376
REMARK  154  A    between atoms: _376  and  _377
REMARK  155  A    between atoms: _376  and  _379
REMARK  156  A    between atoms: _379  and  _380
REMARK  157  A    between atoms: _382  and  _384
REMARK  158  A    between atoms: _384  and  _385
REMARK  159  A    between atoms: _384  and  _387
REMARK  160  A    between atoms: _387  and  _388
REMARK  161  A    between atoms: _391  and  _393
REMARK  162  A    between atoms: _393  and  _394
REMARK  163  A    between atoms: _393  and  _396
REMARK  164  A    between atoms: _396  and  _397
REMARK  165  A    between atoms: _397  and  _398
REMARK  166  A    between atoms: _401  and  _403
REMARK  167  A    between atoms: _403  and  _404
REMARK  168  A    between atoms: _403  and  _406
REMARK  169  A    between atoms: _406  and  _407
REMARK  170  A    between atoms: _412  and  _413
REMARK  171  A    between atoms: _415  and  _417
REMARK  172  A    between atoms: _417  and  _418
REMARK  173  A    between atoms: _417  and  _420
REMARK  174  A    between atoms: _420  and  _421
REMARK  175  A    between atoms: _424  and  _426
REMARK  176  A    between atoms: _426  and  _427
REMARK  177  A    between atoms: _426  and  _429
REMARK  178  A    between atoms: _429  and  _430
REMARK  179  A    between atoms: _433  and  _435
REMARK  180  A    between atoms: _435  and  _436
REMARK  181  A    between atoms: _435  and  _438
REMARK  182  A    between atoms: _438  and  _439
REMARK  183  A    between atoms: _439  and  _440
REMARK  184  A    between atoms: _440  and  _441
REMARK  185  A    between atoms: _450  and  _452
REMARK  186  A    between atoms: _452  and  _453
REMARK  187  A    between atoms: _452  and  _455
REMARK  188  A    between atoms: _458  and  _460
REMARK  189  A    between atoms: _460  and  _461
REMARK  190  A    between atoms: _460  and  _463
REMARK  191  A    between atoms: _463  and  _464
REMARK  192  A    between atoms: _467  and  _469
REMARK  193  A    between atoms: _469  and  _470
REMARK  194  A    between atoms: _469  and  _472
REMARK  195  A    between atoms: _474  and  _476
REMARK  196  A    between atoms: _476  and  _477
REMARK  197  A    between atoms: _476  and  _479
REMARK  198  A    between atoms: _479  and  _480
REMARK  199  A    between atoms: _490  and  _492
REMARK  200  A    between atoms: _492  and  _493
REMARK  201  A    between atoms: _492  and  _495
REMARK  202  A    between atoms: _495  and  _496
REMARK  203  A    between atoms: _496  and  _497
REMARK  204  A    between atoms: _497  and  _498
REMARK  205  A    between atoms: _498  and  _499
REMARK  206  A    between atoms: _503  and  _505
REMARK  207  A    between atoms: _505  and  _506
REMARK  208  A    between atoms: _505  and  _508
REMARK  209  A    between atoms: _508  and  _509
REMARK  210  A    between atoms: _512  and  _513
REMARK  211  A    between atoms: _519  and  _520
REMARK  212  A    between atoms: _525  and  _527
REMARK  213  A    between atoms: _527  and  _528
REMARK  214  A    between atoms: _527  and  _530
REMARK  215  A    between atoms: _530  and  _531
REMARK  216  A    between atoms: _531  and  _532
REMARK  217  A    between atoms: _535  and  _537
REMARK  218  A    between atoms: _537  and  _538
REMARK  219  A    between atoms: _537  and  _540
REMARK  220  A    between atoms: _540  and  _541
REMARK  221  A    between atoms: _541  and  _542
REMARK  222  A    between atoms: _542  and  _543
REMARK  223  A    between atoms: _552  and  _554
REMARK  224  A    between atoms: _554  and  _555
REMARK  225  A    between atoms: _554  and  _557
REMARK  226  A    between atoms: _557  and  _558
REMARK  227  A    between atoms: _561  and  _563
REMARK  228  A    between atoms: _563  and  _564
REMARK  229  A    between atoms: _563  and  _566
REMARK  230  A    between atoms: _566  and  _567
REMARK  231  A    between atoms: _569  and  _571
REMARK  232  A    between atoms: _571  and  _572
REMARK  233  A    between atoms: _571  and  _574
REMARK  234  A    between atoms: _574  and  _575
REMARK  235  A    between atoms: _575  and  _576
REMARK  236  A    between atoms: _576  and  _577
REMARK  237  A    between atoms: _577  and  _578
REMARK  238  A    between atoms: _582  and  _584
REMARK  239  A    between atoms: _584  and  _585
REMARK  240  A    between atoms: _584  and  _587
REMARK  241  A    between atoms: _587  and  _588
REMARK  242  A    between atoms: _591  and  _593
REMARK  243  A    between atoms: _593  and  _594
REMARK  244  A    between atoms: _596  and  _598
REMARK  245  A    between atoms: _598  and  _599
REMARK  246  A    between atoms: _598  and  _601
REMARK  247  A    between atoms: _601  and  _602
REMARK  248  A    between atoms: _604  and  _606
REMARK  249  A    between atoms: _606  and  _607
REMARK  250  A    between atoms: _609  and  _611
REMARK  251  A    between atoms: _611  and  _612
REMARK  252  A    between atoms: _611  and  _614
REMARK  253  A    between atoms: _614  and  _615
REMARK  254  A    between atoms: _620  and  _622
REMARK  255  A    between atoms: _622  and  _623
REMARK  256  A    between atoms: _622  and  _625
REMARK  257  A    between atoms: _625  and  _626
REMARK  258  A    between atoms: _629  and  _631
REMARK  259  A    between atoms: _631  and  _632
REMARK  260  A    between atoms: _631  and  _634
REMARK  261  A    between atoms: _634  and  _635
REMARK  262  A    between atoms: _641  and  _643
REMARK  263  A    between atoms: _643  and  _644
REMARK  264  A    between atoms: _643  and  _646
REMARK  265  A    between atoms: _646  and  _647
REMARK  266  A    between atoms: _647  and  _648
REMARK  267  A    between atoms: _651  and  _653
REMARK  268  A    between atoms: _653  and  _654
REMARK  269  A    between atoms: _653  and  _656
REMARK  270  A    between atoms: _656  and  _657
REMARK  271  A    between atoms: _657  and  _658
REMARK  272  A    between atoms: _663  and  _665
REMARK  273  A    between atoms: _665  and  _666
REMARK  274  A    between atoms: _665  and  _668
REMARK  275  A    between atoms: _668  and  _669
REMARK  276  A    between atoms: _669  and  _670
REMARK  277  A    between atoms: _670  and  _671
REMARK  278  A    between atoms: _680  and  _682
REMARK  279  A    between atoms: _682  and  _683
REMARK  280  A    between atoms: _682  and  _685
REMARK  281  A    between atoms: _685  and  _686
REMARK  282  A    between atoms: _686  and  _687
REMARK  283  A    between atoms: _687  and  _688
REMARK  284  A    between atoms: _697  and  _699
REMARK  285  A    between atoms: _699  and  _700
REMARK  286  A    between atoms: _699  and  _702
REMARK  287  A    between atoms: _702  and  _703
REMARK  288  A    between atoms: _708  and  _709
REMARK  289  A    between atoms: _711  and  _713
REMARK  290  A    between atoms: _713  and  _714
REMARK  291  A    between atoms: _713  and  _716
REMARK  292  A    between atoms: _716  and  _717
REMARK  293  A    between atoms: _720  and  _722
REMARK  294  A    between atoms: _722  and  _723
REMARK  295  A    between atoms: _722  and  _725
REMARK  296  A    between atoms: _725  and  _726
REMARK  297  A    between atoms: _726  and  _727
REMARK  298  A    between atoms: _727  and  _728
REMARK  299  A    between atoms: _728  and  _729
REMARK  300  A    between atoms: _733  and  _735
REMARK  301  A    between atoms: _735  and  _736
REMARK  302  A    between atoms: _735  and  _738
REMARK  303  A    between atoms: _738  and  _739
REMARK  304  A    between atoms: _744  and  _746
REMARK  305  A    between atoms: _746  and  _747
REMARK  306  A    between atoms: _746  and  _749
REMARK  307  A    between atoms: _749  and  _750
REMARK  308  A    between atoms: _760  and  _762
REMARK  309  A    between atoms: _762  and  _763
REMARK  310  A    between atoms: _762  and  _765
REMARK  311  A    between atoms: _765  and  _766
REMARK  312  A    between atoms: _766  and  _767
REMARK  313  A    between atoms: _770  and  _772
REMARK  314  A    between atoms: _772  and  _773
REMARK  315  A    between atoms: _772  and  _775
REMARK  316  A    between atoms: _775  and  _776
REMARK  317  A    between atoms: _779  and  _781
REMARK  318  A    between atoms: _781  and  _782
REMARK  319  A    between atoms: _781  and  _784
REMARK  320  A    between atoms: _784  and  _785
REMARK  321  A    between atoms: _790  and  _792
REMARK  322  A    between atoms: _792  and  _793
REMARK  323  A    between atoms: _792  and  _795
REMARK  324  A    between atoms: _795  and  _796
REMARK  325  A    between atoms: _802  and  _804
REMARK  326  A    between atoms: _804  and  _805
REMARK  327  A    between atoms: _804  and  _807
REMARK  328  A    between atoms: _807  and  _808
REMARK  329  A    between atoms: _810  and  _812
REMARK  330  A    between atoms: _812  and  _813
REMARK  331  A    between atoms: _815  and  _817
REMARK  332  A    between atoms: _817  and  _818
REMARK  333  A    between atoms: _817  and  _820
REMARK  334  A    between atoms: _820  and  _821
REMARK  335  A    between atoms: _826  and  _827
REMARK  336  A    between atoms: _829  and  _831
REMARK  337  A    between atoms: _831  and  _832
REMARK  338  A    between atoms: _831  and  _834
REMARK  339  A    between atoms: _834  and  _835
REMARK  340  A    between atoms: _840  and  _841
REMARK  341  A    between atoms: _843  and  _845
REMARK  342  A    between atoms: _845  and  _846
REMARK  343  A    between atoms: _845  and  _848
REMARK  344  A    between atoms: _848  and  _849
REMARK  345  A    between atoms: _853  and  ZN_1037
REMARK  346  A    between atoms: _854  and  _856
REMARK  347  A    between atoms: _856  and  _857
REMARK  348  A    between atoms: _856  and  _859
REMARK  349  A    between atoms: _859  and  _860
REMARK  350  A    between atoms: _860  and  _861
REMARK  351  A    between atoms: _864  and  _866
REMARK  352  A    between atoms: _866  and  _867
REMARK  353  A    between atoms: _866  and  _869
REMARK  354  A    between atoms: _869  and  _870
REMARK  355  A    between atoms: _870  and  _871
REMARK  356  A    between atoms: _871  and  _872
REMARK  357  A    between atoms: _881  and  _883
REMARK  358  A    between atoms: _883  and  _884
REMARK  359  A    between atoms: _883  and  _886
REMARK  360  A    between atoms: _886  and  _887
REMARK  361  A    between atoms: _887  and  _888
REMARK  362  A    between atoms: _888  and  _889
REMARK  363  A    between atoms: _889  and  _890
REMARK  364  A    between atoms: _894  and  _896
REMARK  365  A    between atoms: _896  and  _897
REMARK  366  A    between atoms: _896  and  _899
REMARK  367  A    between atoms: _899  and  _900
REMARK  368  A    between atoms: _905  and  _906
REMARK  369  A    between atoms: _908  and  _910
REMARK  370  A    between atoms: _910  and  _911
REMARK  371  A    between atoms: _910  and  _913
REMARK  372  A    between atoms: _913  and  _914
REMARK  373  A    between atoms: _914  and  _915
REMARK  374  A    between atoms: _915  and  _916
REMARK  375  A    between atoms: _916  and  _917
REMARK  376  A    between atoms: _921  and  _923
REMARK  377  A    between atoms: _923  and  _924
REMARK  378  A    between atoms: _923  and  _926
REMARK  379  A    between atoms: _926  and  _927
REMARK  380  A    between atoms: _932  and  _933
REMARK  381  A    between atoms: _935  and  _937
REMARK  382  A    between atoms: _937  and  _938
REMARK  383  A    between atoms: _937  and  _940
REMARK  384  A    between atoms: _940  and  _941
REMARK  385  A    between atoms: _946  and  _947
REMARK  386  A    between atoms: _949  and  _951
REMARK  387  A    between atoms: _951  and  _952
REMARK  388  A    between atoms: _956  and  _957
REMARK  389  A    between atoms: _962  and  _964
REMARK  390  A    between atoms: _964  and  _965
REMARK  391  A    between atoms: _964  and  _967
REMARK  392  A    between atoms: _967  and  _968
REMARK  393  A    between atoms: _970  and  _972
REMARK  394  A    between atoms: _972  and  _973
REMARK  395  A    between atoms: _972  and  _975
REMARK  396  A    between atoms: _975  and  _976
REMARK  397  A    between atoms: _981  and  _983
REMARK  398  A    between atoms: _983  and  _984
REMARK  399  A    between atoms: _983  and  _986
REMARK  400  A    between atoms: _986  and  _987
REMARK  401  A    between atoms: _987  and  _988
REMARK  402  A    between atoms: _988  and  _989
REMARK  403  A    between atoms: _989  and  _990
REMARK  404  A    between atoms: _994  and  _996
REMARK  405  A    between atoms: _996  and  _997
REMARK  406  A    between atoms: _996  and  _999
REMARK  407  A    between atoms: _999  and  _1000
REMARK  408  A    between atoms: _1005  and  _1006
REMARK  409  A    between atoms: _1008  and  _1010
REMARK  410  A    between atoms: _1010  and  _1011
REMARK  411  A    between atoms: _1014  and  _1016
REMARK  412  A    between atoms: _1016  and  _1017
REMARK  413  A    between atoms: _1019  and  _1021
REMARK  414  A    between atoms: _1021  and  _1022
REMARK  415  A    between atoms: _1021  and  _1024
REMARK  416  A    between atoms: _1024  and  _1025
REMARK  417  A    between atoms: _1025  and  _1026
REMARK  418  A    between atoms: _1029  and  _1031
REMARK  419  A    between atoms: _1031  and  _1032
REMARK  420  A    between atoms: _1031  and  _1034
REMARK  421  A    between atoms: _1034  and  _1035
REMARK                            x       y       z     vdW  Elec       q    Type
REMARK                         _______ _______ _______ _____ _____    ______ ____
ROOT
ATOM      1  O   HOH     1      26.132  59.890  47.586  0.00  0.00    +0.000 OA
ENDROOT
TORSDOF 0
REMARK  Name = ../refined-set-2016/2xef/2xef_pocket.pdb
REMARK  421 active torsions:
REMARK  status: ('A' for Active; 'I' for Inactive)
REMARK    1  A    between atoms: _1  and  _3
REMARK    2  A    between atoms: _3  and  _4
REMARK    3  A    between atoms: _7  and  _9
REMARK    4  A    between atoms: _9  and  _10
REMARK    5  A    between atoms: _9  and  _12
REMARK    6  A    between atoms: _12  and  _13
REMARK    7  A    between atoms: _19  and  _21
REMARK    8  A    between atoms: _21  and  _22
REMARK    9  A    between atoms: _21  and  _24
REMARK   10  A    between atoms: _24  and  _25
REMARK   11  A    between atoms: _30  and  _31
REMARK   12  A    between atoms: _33  and  _35
REMARK   13  A    between atoms: _35  and  _36
REMARK   14  A    between atoms: _38  and  _40
REMARK   15  A    between atoms: _40  and  _41
REMARK   16  A    between atoms: _40  and  _43
REMARK   17  A    between atoms: _43  and  _44
REMARK   18  A    between atoms: _44  and  _45
REMARK   19  A    between atoms: _45  and  _46
REMARK   20  A    between atoms: _46  and  _47
REMARK   21  A    between atoms: _51  and  _53
REMARK   22  A    between atoms: _53  and  _54
REMARK   23  A    between atoms: _53  and  _56
REMARK   24  A    between atoms: _59  and  _61
REMARK   25  A    between atoms: _61  and  _62
REMARK   26  A    between atoms: _61  and  _64
REMARK   27  A    between atoms: _64  and  _65
REMARK   28  A    between atoms: _71  and  _73
REMARK   29  A    between atoms: _73  and  _74
REMARK   30  A    between atoms: _73  and  _76
REMARK   31  A    between atoms: _76  and  _77
REMARK   32  A    between atoms: _77  and  _78
REMARK   33  A    between atoms: _78  and  _79
REMARK   34  A    between atoms: _88  and  _90
REMARK   35  A    between atoms: _90  and  _91
REMARK   36  A    between atoms: _93  and  _95
REMARK   37  A    between atoms: _95  and  _96
REMARK   38  A    between atoms: _95  and  _98
REMARK   39  A    between atoms: _98  and  _99
REMARK   40  A    between atoms: _99  and  _100
REMARK   41  A    between atoms: _100  and  _101
REMARK   42  A    between atoms: _101  and  _102
REMARK   43  A    between atoms: _106  and  _108
REMARK   44  A    between atoms: _108  and  _109
REMARK   45  A    between atoms: _108  and  _111
REMARK   46  A    between atoms: _111  and  _112
REMARK   47  A    between atoms: _117  and  _118
REMARK   48  A    between atoms: _120  and  _122
REMARK   49  A    between atoms: _122  and  _123
REMARK   50  A    between atoms: _122  and  _125
REMARK   51  A    between atoms: _125  and  _126
REMARK   52  A    between atoms: _126  and  _127
REMARK   53  A    between atoms: _132  and  _134
REMARK   54  A    between atoms: _134  and  _135
REMARK   55  A    between atoms: _134  and  _137
REMARK   56  A    between atoms: _137  and  _138
REMARK   57  A    between atoms: _138  and  _139
REMARK   58  A    between atoms: _139  and  _140
REMARK   59  A    between atoms: _149  and  _151
REMARK   60  A    between atoms: _151  and  _152
REMARK   61  A    between atoms: _154  and  _156
REMARK   62  A    between atoms: _156  and  _157
REMARK   63  A    between atoms: _156  and  _159
REMARK   64  A    between atoms: _159  and  _160
REMARK   65  A    between atoms: _165  and  _167
REMARK   66  A    between atoms: _167  and  _168
REMARK   67  A    between atoms: _167  and  _170
REMARK   68  A    between atoms: _170  and  _171
REMARK   69  A    between atoms: _174  and  _176
REMARK   70  A    between atoms: _176  and  _177
REMARK   71  A    between atoms: _176  and  _179
REMARK   72  A    between atoms: _179  and  _180
REMARK   73  A    between atoms: _183  and  _185
REMARK   74  A    between atoms: _185  and  _186
REMARK   75  A    between atoms: _185  and  _188
REMARK   76  A    between atoms: _188  and  _189
REMARK   77  A    between atoms: _194  and  _196
REMARK   78  A    between atoms: _196  and  _197
REMARK   79  A    between atoms: _196  and  _199
REMARK   80  A    between atoms: _199  and  _200
REMARK   81  A    between atoms: _203  and  _205
REMARK   82  A    between atoms: _205  and  _206
REMARK   83  A    between atoms: _205  and  _208
REMARK   84  A    between atoms: _208  and  _209
REMARK   85  A    between atoms: _214  and  _216
REMARK   86  A    between atoms: _216  and  _217
REMARK   87  A    between atoms: _219  and  _221
REMARK   88  A    between atoms: _221  and  _222
REMARK   89  A    between atoms: _224  and  _226
REMARK   90  A    between atoms: _226  and  _227
REMARK   91  A    between atoms: _226  and  _229
REMARK   92  A    between atoms: _229  and  _230
REMARK   93  A    between atoms: _234  and  ZN_1038
REMARK   94  A    between atoms: _235  and  _237
REMARK   95  A    between atoms: _237  and  _238
REMARK   96  A    between atoms: _237  and  _240
REMARK   97  A    between atoms: _240  and  _241
REMARK   98  A    between atoms: _244  and  _246
REMARK   99  A    between atoms: _246  and  _247
REMARK  100  A    between atoms: _246  and  _249
REMARK  101  A    between atoms: _249  and  _250
REMARK  102  A    between atoms: _260  and  _262
REMARK  103  A    between atoms: _262  and  _263
REMARK  104  A    between atoms: _262  and  _265
REMARK  105  A    between atoms: _265  and  _266
REMARK  106  A    between atoms: _269  and  _271
REMARK  107  A    between atoms: _271  and  _272
REMARK  108  A    between atoms: _271  and  _274
REMARK  109  A    between atoms: _274  and  _275
REMARK  110  A    between atoms: _279  and  _280
REMARK  111  A    between atoms: _285  and  _287
REMARK  112  A    between atoms: _287  and  _288
REMARK  113  A    between atoms: _291  and  _293
REMARK  114  A    between atoms: _293  and  _294
REMARK  115  A    between atoms: _293  and  _296
REMARK  116  A    between atoms: _296  and  _297
REMARK  117  A    between atoms: _297  and  _298
REMARK  118  A    between atoms: _301  and  _303
REMARK  119  A    between atoms: _303  and  _304
REMARK  120  A    between atoms: _303  and  _306
REMARK  121  A    between atoms: _306  and  _307
REMARK  122  A    between atoms: _307  and  _308
REMARK  123  A    between atoms: _308  and  _310
REMARK  124  A    between atoms: _310  and  ZN_1037
REMARK  125  A    between atoms: _311  and  _313
REMARK  126  A    between atoms: _313  and  _314
REMARK  127  A    between atoms: _313  and  _316
REMARK  128  A    between atoms: _316  and  _317
REMARK  129  A    between atoms: _323  and  _325
REMARK  130  A    between atoms: _325  and  _326
REMARK  131  A    between atoms: _328  and  _330
REMARK  132  A    between atoms: _330  and  _331
REMARK  133  A    between atoms: _330  and  _333
REMARK  134  A    between atoms: _333  and  _334
REMARK  135  A    between atoms: _337  and  _339
REMARK  136  A    between atoms: _339  and  _340
REMARK  137  A    between atoms: _339  and  _342
REMARK  138  A    between atoms: _342  and  _343
REMARK  139  A    between atoms: _346  and  _348
REMARK  140  A    between atoms: _348  and  _349
REMARK  141  A    between atoms: _348  and  _351
REMARK  142  A    between atoms: _351  and  _352
REMARK  143  A    between atoms: _357  and  _359
REMARK  144  A    between atoms: _359  and  _360
REMARK  145  A    between atoms: _359  and  _362
REMARK  146  A    between atoms: _362  and  _363
REMARK  147  A    between atoms: _363  and  _365
REMARK  148  A    between atoms: _365  and  ZN_1038
REMARK  149  A    between atoms: _366  and  _368
REMARK  150  A    between atoms: _368  and  _369
REMARK  151  A    between atoms: _368  and  _371
REMARK  152  A    between atoms: _371  and  _372
REMARK  153  A    between atoms: _374  and  _376
REMARK  154  A    between atoms: _376  and  _377
REMARK  155  A    between atoms: _376  and  _379
REMARK  156  A    between atoms: _379  and  _380
REMARK  157  A    between atoms: _382  and  _384
REMARK  158  A    between atoms: _384  and  _385
REMARK  159  A    between atoms: _384  and  _387
REMARK  160  A    between atoms: _387  and  _388
REMARK  161  A    between atoms: _391  and  _393
REMARK  162  A    between atoms: _393  and  _394
REMARK  163  A    between atoms: _393  and  _396
REMARK  164  A    between atoms: _396  and  _397
REMARK  165  A    between atoms: _397  and  _398
REMARK  166  A    between atoms: _401  and  _403
REMARK  167  A    between atoms: _403  and  _404
REMARK  168  A    between atoms: _403  and  _406
REMARK  169  A    between atoms: _406  and  _407
REMARK  170  A    between atoms: _412  and  _413
REMARK  171  A    between atoms: _415  and  _417
REMARK  172  A    between atoms: _417  and  _418
REMARK  173  A    between atoms: _417  and  _420
REMARK  174  A    between atoms: _420  and  _421
REMARK  175  A    between atoms: _424  and  _426
REMARK  176  A    between atoms: _426  and  _427
REMARK  177  A    between atoms: _426  and  _429
REMARK  178  A    between atoms: _429  and  _430
REMARK  179  A    between atoms: _433  and  _435
REMARK  180  A    between atoms: _435  and  _436
REMARK  181  A    between atoms: _435  and  _438
REMARK  182  A    between atoms: _438  and  _439
REMARK  183  A    between atoms: _439  and  _440
REMARK  184  A    between atoms: _440  and  _441
REMARK  185  A    between atoms: _450  and  _452
REMARK  186  A    between atoms: _452  and  _453
REMARK  187  A    between atoms: _452  and  _455
REMARK  188  A    between atoms: _458  and  _460
REMARK  189  A    between atoms: _460  and  _461
REMARK  190  A    between atoms: _460  and  _463
REMARK  191  A    between atoms: _463  and  _464
REMARK  192  A    between atoms: _467  and  _469
REMARK  193  A    between atoms: _469  and  _470
REMARK  194  A    between atoms: _469  and  _472
REMARK  195  A    between atoms: _474  and  _476
REMARK  196  A    between atoms: _476  and  _477
REMARK  197  A    between atoms: _476  and  _479
REMARK  198  A    between atoms: _479  and  _480
REMARK  199  A    between atoms: _490  and  _492
REMARK  200  A    between atoms: _492  and  _493
REMARK  201  A    between atoms: _492  and  _495
REMARK  202  A    between atoms: _495  and  _496
REMARK  203  A    between atoms: _496  and  _497
REMARK  204  A    between atoms: _497  and  _498
REMARK  205  A    between atoms: _498  and  _499
REMARK  206  A    between atoms: _503  and  _505
REMARK  207  A    between atoms: _505  and  _506
REMARK  208  A    between atoms: _505  and  _508
REMARK  209  A    between atoms: _508  and  _509
REMARK  210  A    between atoms: _512  and  _513
REMARK  211  A    between atoms: _519  and  _520
REMARK  212  A    between atoms: _525  and  _527
REMARK  213  A    between atoms: _527  and  _528
REMARK  214  A    between atoms: _527  and  _530
REMARK  215  A    between atoms: _530  and  _531
REMARK  216  A    between atoms: _531  and  _532
REMARK  217  A    between atoms: _535  and  _537
REMARK  218  A    between atoms: _537  and  _538
REMARK  219  A    between atoms: _537  and  _540
REMARK  220  A    between atoms: _540  and  _541
REMARK  221  A    between atoms: _541  and  _542
REMARK  222  A    between atoms: _542  and  _543
REMARK  223  A    between atoms: _552  and  _554
REMARK  224  A    between atoms: _554  and  _555
REMARK  225  A    between atoms: _554  and  _557
REMARK  226  A    between atoms: _557  and  _558
REMARK  227  A    between atoms: _561  and  _563
REMARK  228  A    between atoms: _563  and  _564
REMARK  229  A    between atoms: _563  and  _566
REMARK  230  A    between atoms: _566  and  _567
REMARK  231  A    between atoms: _569  and  _571
REMARK  232  A    between atoms: _571  and  _572
REMARK  233  A    between atoms: _571  and  _574
REMARK  234  A    between atoms: _574  and  _575
REMARK  235  A    between atoms: _575  and  _576
REMARK  236  A    between atoms: _576  and  _577
REMARK  237  A    between atoms: _577  and  _578
REMARK  238  A    between atoms: _582  and  _584
REMARK  239  A    between atoms: _584  and  _585
REMARK  240  A    between atoms: _584  and  _587
REMARK  241  A    between atoms: _587  and  _588
REMARK  242  A    between atoms: _591  and  _593
REMARK  243  A    between atoms: _593  and  _594
REMARK  244  A    between atoms: _596  and  _598
REMARK  245  A    between atoms: _598  and  _599
REMARK  246  A    between atoms: _598  and  _601
REMARK  247  A    between atoms: _601  and  _602
REMARK  248  A    between atoms: _604  and  _606
REMARK  249  A    between atoms: _606  and  _607
REMARK  250  A    between atoms: _609  and  _611
REMARK  251  A    between atoms: _611  and  _612
REMARK  252  A    between atoms: _611  and  _614
REMARK  253  A    between atoms: _614  and  _615
REMARK  254  A    between atoms: _620  and  _622
REMARK  255  A    between atoms: _622  and  _623
REMARK  256  A    between atoms: _622  and  _625
REMARK  257  A    between atoms: _625  and  _626
REMARK  258  A    between atoms: _629  and  _631
REMARK  259  A    between atoms: _631  and  _632
REMARK  260  A    between atoms: _631  and  _634
REMARK  261  A    between atoms: _634  and  _635
REMARK  262  A    between atoms: _641  and  _643
REMARK  263  A    between atoms: _643  and  _644
REMARK  264  A    between atoms: _643  and  _646
REMARK  265  A    between atoms: _646  and  _647
REMARK  266  A    between atoms: _647  and  _648
REMARK  267  A    between atoms: _651  and  _653
REMARK  268  A    between atoms: _653  and  _654
REMARK  269  A    between atoms: _653  and  _656
REMARK  270  A    between atoms: _656  and  _657
REMARK  271  A    between atoms: _657  and  _658
REMARK  272  A    between atoms: _663  and  _665
REMARK  273  A    between atoms: _665  and  _666
REMARK  274  A    between atoms: _665  and  _668
REMARK  275  A    between atoms: _668  and  _669
REMARK  276  A    between atoms: _669  and  _670
REMARK  277  A    between atoms: _670  and  _671
REMARK  278  A    between atoms: _680  and  _682
REMARK  279  A    between atoms: _682  and  _683
REMARK  280  A    between atoms: _682  and  _685
REMARK  281  A    between atoms: _685  and  _686
REMARK  282  A    between atoms: _686  and  _687
REMARK  283  A    between atoms: _687  and  _688
REMARK  284  A    between atoms: _697  and  _699
REMARK  285  A    between atoms: _699  and  _700
REMARK  286  A    between atoms: _699  and  _702
REMARK  287  A    between atoms: _702  and  _703
REMARK  288  A    between atoms: _708  and  _709
REMARK  289  A    between atoms: _711  and  _713
REMARK  290  A    between atoms: _713  and  _714
REMARK  291  A    between atoms: _713  and  _716
REMARK  292  A    between atoms: _716  and  _717
REMARK  293  A    between atoms: _720  and  _722
REMARK  294  A    between atoms: _722  and  _723
REMARK  295  A    between atoms: _722  and  _725
REMARK  296  A    between atoms: _725  and  _726
REMARK  297  A    between atoms: _726  and  _727
REMARK  298  A    between atoms: _727  and  _728
REMARK  299  A    between atoms: _728  and  _729
REMARK  300  A    between atoms: _733  and  _735
REMARK  301  A    between atoms: _735  and  _736
REMARK  302  A    between atoms: _735  and  _738
REMARK  303  A    between atoms: _738  and  _739
REMARK  304  A    between atoms: _744  and  _746
REMARK  305  A    between atoms: _746  and  _747
REMARK  306  A    between atoms: _746  and  _749
REMARK  307  A    between atoms: _749  and  _750
REMARK  308  A    between atoms: _760  and  _762
REMARK  309  A    between atoms: _762  and  _763
REMARK  310  A    between atoms: _762  and  _765
REMARK  311  A    between atoms: _765  and  _766
REMARK  312  A    between atoms: _766  and  _767
REMARK  313  A    between atoms: _770  and  _772
REMARK  314  A    between atoms: _772  and  _773
REMARK  315  A    between atoms: _772  and  _775
REMARK  316  A    between atoms: _775  and  _776
REMARK  317  A    between atoms: _779  and  _781
REMARK  318  A    between atoms: _781  and  _782
REMARK  319  A    between atoms: _781  and  _784
REMARK  320  A    between atoms: _784  and  _785
REMARK  321  A    between atoms: _790  and  _792
REMARK  322  A    between atoms: _792  and  _793
REMARK  323  A    between atoms: _792  and  _795
REMARK  324  A    between atoms: _795  and  _796
REMARK  325  A    between atoms: _802  and  _804
REMARK  326  A    between atoms: _804  and  _805
REMARK  327  A    between atoms: _804  and  _807
REMARK  328  A    between atoms: _807  and  _808
REMARK  329  A    between atoms: _810  and  _812
REMARK  330  A    between atoms: _812  and  _813
REMARK  331  A    between atoms: _815  and  _817
REMARK  332  A    between atoms: _817  and  _818
REMARK  333  A    between atoms: _817  and  _820
REMARK  334  A    between atoms: _820  and  _821
REMARK  335  A    between atoms: _826  and  _827
REMARK  336  A    between atoms: _829  and  _831
REMARK  337  A    between atoms: _831  and  _832
REMARK  338  A    between atoms: _831  and  _834
REMARK  339  A    between atoms: _834  and  _835
REMARK  340  A    between atoms: _840  and  _841
REMARK  341  A    between atoms: _843  and  _845
REMARK  342  A    between atoms: _845  and  _846
REMARK  343  A    between atoms: _845  and  _848
REMARK  344  A    between atoms: _848  and  _849
REMARK  345  A    between atoms: _853  and  ZN_1037
REMARK  346  A    between atoms: _854  and  _856
REMARK  347  A    between atoms: _856  and  _857
REMARK  348  A    between atoms: _856  and  _859
REMARK  349  A    between atoms: _859  and  _860
REMARK  350  A    between atoms: _860  and  _861
REMARK  351  A    between atoms: _864  and  _866
REMARK  352  A    between atoms: _866  and  _867
REMARK  353  A    between atoms: _866  and  _869
REMARK  354  A    between atoms: _869  and  _870
REMARK  355  A    between atoms: _870  and  _871
REMARK  356  A    between atoms: _871  and  _872
REMARK  357  A    between atoms: _881  and  _883
REMARK  358  A    between atoms: _883  and  _884
REMARK  359  A    between atoms: _883  and  _886
REMARK  360  A    between atoms: _886  and  _887
REMARK  361  A    between atoms: _887  and  _888
REMARK  362  A    between atoms: _888  and  _889
REMARK  363  A    between atoms: _889  and  _890
REMARK  364  A    between atoms: _894  and  _896
REMARK  365  A    between atoms: _896  and  _897
REMARK  366  A    between atoms: _896  and  _899
REMARK  367  A    between atoms: _899  and  _900
REMARK  368  A    between atoms: _905  and  _906
REMARK  369  A    between atoms: _908  and  _910
REMARK  370  A    between atoms: _910  and  _911
REMARK  371  A    between atoms: _910  and  _913
REMARK  372  A    between atoms: _913  and  _914
REMARK  373  A    between atoms: _914  and  _915
REMARK  374  A    between atoms: _915  and  _916
REMARK  375  A    between atoms: _916  and  _917
REMARK  376  A    between atoms: _921  and  _923
REMARK  377  A    between atoms: _923  and  _924
REMARK  378  A    between atoms: _923  and  _926
REMARK  379  A    between atoms: _926  and  _927
REMARK  380  A    between atoms: _932  and  _933
REMARK  381  A    between atoms: _935  and  _937
REMARK  382  A    between atoms: _937  and  _938
REMARK  383  A    between atoms: _937  and  _940
REMARK  384  A    between atoms: _940  and  _941
REMARK  385  A    between atoms: _946  and  _947
REMARK  386  A    between atoms: _949  and  _951
REMARK  387  A    between atoms: _951  and  _952
REMARK  388  A    between atoms: _956  and  _957
REMARK  389  A    between atoms: _962  and  _964
REMARK  390  A    between atoms: _964  and  _965
REMARK  391  A    between atoms: _964  and  _967
REMARK  392  A    between atoms: _967  and  _968
REMARK  393  A    between atoms: _970  and  _972
REMARK  394  A    between atoms: _972  and  _973
REMARK  395  A    between atoms: _972  and  _975
REMARK  396  A    between atoms: _975  and  _976
REMARK  397  A    between atoms: _981  and  _983
REMARK  398  A    between atoms: _983  and  _984
REMARK  399  A    between atoms: _983  and  _986
REMARK  400  A    between atoms: _986  and  _987
REMARK  401  A    between atoms: _987  and  _988
REMARK  402  A    between atoms: _988  and  _989
REMARK  403  A    between atoms: _989  and  _990
REMARK  404  A    between atoms: _994  and  _996
REMARK  405  A    between atoms: _996  and  _997
REMARK  406  A    between atoms: _996  and  _999
REMARK  407  A    between atoms: _999  and  _1000
REMARK  408  A    between atoms: _1005  and  _1006
REMARK  409  A    between atoms: _1008  and  _1010
REMARK  410  A    between atoms: _1010  and  _1011
REMARK  411  A    between atoms: _1014  and  _1016
REMARK  412  A    between atoms: _1016  and  _1017
REMARK  413  A    between atoms: _1019  and  _1021
REMARK  414  A    between atoms: _1021  and  _1022
REMARK  415  A    between atoms: _1021  and  _1024
REMARK  416  A    between atoms: _1024  and  _1025
REMARK  417  A    between atoms: _1025  and  _1026
REMARK  418  A    between atoms: _1029  and  _1031
REMARK  419  A    between atoms: _1031  and  _1032
REMARK  420  A    between atoms: _1031  and  _1034
REMARK  421  A    between atoms: _1034  and  _1035
REMARK                            x       y       z     vdW  Elec       q    Type
REMARK                         _______ _______ _______ _____ _____    ______ ____
ROOT
ATOM      1  O   HOH     1      19.155  59.948  50.082  0.00  0.00    +0.000 OA
ENDROOT
TORSDOF 0
REMARK  Name = ../refined-set-2016/2xef/2xef_pocket.pdb
REMARK  421 active torsions:
REMARK  status: ('A' for Active; 'I' for Inactive)
REMARK    1  A    between atoms: _1  and  _3
REMARK    2  A    between atoms: _3  and  _4
REMARK    3  A    between atoms: _7  and  _9
REMARK    4  A    between atoms: _9  and  _10
REMARK    5  A    between atoms: _9  and  _12
REMARK    6  A    between atoms: _12  and  _13
REMARK    7  A    between atoms: _19  and  _21
REMARK    8  A    between atoms: _21  and  _22
REMARK    9  A    between atoms: _21  and  _24
REMARK   10  A    between atoms: _24  and  _25
REMARK   11  A    between atoms: _30  and  _31
REMARK   12  A    between atoms: _33  and  _35
REMARK   13  A    between atoms: _35  and  _36
REMARK   14  A    between atoms: _38  and  _40
REMARK   15  A    between atoms: _40  and  _41
REMARK   16  A    between atoms: _40  and  _43
REMARK   17  A    between atoms: _43  and  _44
REMARK   18  A    between atoms: _44  and  _45
REMARK   19  A    between atoms: _45  and  _46
REMARK   20  A    between atoms: _46  and  _47
REMARK   21  A    between atoms: _51  and  _53
REMARK   22  A    between atoms: _53  and  _54
REMARK   23  A    between atoms: _53  and  _56
REMARK   24  A    between atoms: _59  and  _61
REMARK   25  A    between atoms: _61  and  _62
REMARK   26  A    between atoms: _61  and  _64
REMARK   27  A    between atoms: _64  and  _65
REMARK   28  A    between atoms: _71  and  _73
REMARK   29  A    between atoms: _73  and  _74
REMARK   30  A    between atoms: _73  and  _76
REMARK   31  A    between atoms: _76  and  _77
REMARK   32  A    between atoms: _77  and  _78
REMARK   33  A    between atoms: _78  and  _79
REMARK   34  A    between atoms: _88  and  _90
REMARK   35  A    between atoms: _90  and  _91
REMARK   36  A    between atoms: _93  and  _95
REMARK   37  A    between atoms: _95  and  _96
REMARK   38  A    between atoms: _95  and  _98
REMARK   39  A    between atoms: _98  and  _99
REMARK   40  A    between atoms: _99  and  _100
REMARK   41  A    between atoms: _100  and  _101
REMARK   42  A    between atoms: _101  and  _102
REMARK   43  A    between atoms: _106  and  _108
REMARK   44  A    between atoms: _108  and  _109
REMARK   45  A    between atoms: _108  and  _111
REMARK   46  A    between atoms: _111  and  _112
REMARK   47  A    between atoms: _117  and  _118
REMARK   48  A    between atoms: _120  and  _122
REMARK   49  A    between atoms: _122  and  _123
REMARK   50  A    between atoms: _122  and  _125
REMARK   51  A    between atoms: _125  and  _126
REMARK   52  A    between atoms: _126  and  _127
REMARK   53  A    between atoms: _132  and  _134
REMARK   54  A    between atoms: _134  and  _135
REMARK   55  A    between atoms: _134  and  _137
REMARK   56  A    between atoms: _137  and  _138
REMARK   57  A    between atoms: _138  and  _139
REMARK   58  A    between atoms: _139  and  _140
REMARK   59  A    between atoms: _149  and  _151
REMARK   60  A    between atoms: _151  and  _152
REMARK   61  A    between atoms: _154  and  _156
REMARK   62  A    between atoms: _156  and  _157
REMARK   63  A    between atoms: _156  and  _159
REMARK   64  A    between atoms: _159  and  _160
REMARK   65  A    between atoms: _165  and  _167
REMARK   66  A    between atoms: _167  and  _168
REMARK   67  A    between atoms: _167  and  _170
REMARK   68  A    between atoms: _170  and  _171
REMARK   69  A    between atoms: _174  and  _176
REMARK   70  A    between atoms: _176  and  _177
REMARK   71  A    between atoms: _176  and  _179
REMARK   72  A    between atoms: _179  and  _180
REMARK   73  A    between atoms: _183  and  _185
REMARK   74  A    between atoms: _185  and  _186
REMARK   75  A    between atoms: _185  and  _188
REMARK   76  A    between atoms: _188  and  _189
REMARK   77  A    between atoms: _194  and  _196
REMARK   78  A    between atoms: _196  and  _197
REMARK   79  A    between atoms: _196  and  _199
REMARK   80  A    between atoms: _199  and  _200
REMARK   81  A    between atoms: _203  and  _205
REMARK   82  A    between atoms: _205  and  _206
REMARK   83  A    between atoms: _205  and  _208
REMARK   84  A    between atoms: _208  and  _209
REMARK   85  A    between atoms: _214  and  _216
REMARK   86  A    between atoms: _216  and  _217
REMARK   87  A    between atoms: _219  and  _221
REMARK   88  A    between atoms: _221  and  _222
REMARK   89  A    between atoms: _224  and  _226
REMARK   90  A    between atoms: _226  and  _227
REMARK   91  A    between atoms: _226  and  _229
REMARK   92  A    between atoms: _229  and  _230
REMARK   93  A    between atoms: _234  and  ZN_1038
REMARK   94  A    between atoms: _235  and  _237
REMARK   95  A    between atoms: _237  and  _238
REMARK   96  A    between atoms: _237  and  _240
REMARK   97  A    between atoms: _240  and  _241
REMARK   98  A    between atoms: _244  and  _246
REMARK   99  A    between atoms: _246  and  _247
REMARK  100  A    between atoms: _246  and  _249
REMARK  101  A    between atoms: _249  and  _250
REMARK  102  A    between atoms: _260  and  _262
REMARK  103  A    between atoms: _262  and  _263
REMARK  104  A    between atoms: _262  and  _265
REMARK  105  A    between atoms: _265  and  _266
REMARK  106  A    between atoms: _269  and  _271
REMARK  107  A    between atoms: _271  and  _272
REMARK  108  A    between atoms: _271  and  _274
REMARK  109  A    between atoms: _274  and  _275
REMARK  110  A    between atoms: _279  and  _280
REMARK  111  A    between atoms: _285  and  _287
REMARK  112  A    between atoms: _287  and  _288
REMARK  113  A    between atoms: _291  and  _293
REMARK  114  A    between atoms: _293  and  _294
REMARK  115  A    between atoms: _293  and  _296
REMARK  116  A    between atoms: _296  and  _297
REMARK  117  A    between atoms: _297  and  _298
REMARK  118  A    between atoms: _301  and  _303
REMARK  119  A    between atoms: _303  and  _304
REMARK  120  A    between atoms: _303  and  _306
REMARK  121  A    between atoms: _306  and  _307
REMARK  122  A    between atoms: _307  and  _308
REMARK  123  A    between atoms: _308  and  _310
REMARK  124  A    between atoms: _310  and  ZN_1037
REMARK  125  A    between atoms: _311  and  _313
REMARK  126  A    between atoms: _313  and  _314
REMARK  127  A    between atoms: _313  and  _316
REMARK  128  A    between atoms: _316  and  _317
REMARK  129  A    between atoms: _323  and  _325
REMARK  130  A    between atoms: _325  and  _326
REMARK  131  A    between atoms: _328  and  _330
REMARK  132  A    between atoms: _330  and  _331
REMARK  133  A    between atoms: _330  and  _333
REMARK  134  A    between atoms: _333  and  _334
REMARK  135  A    between atoms: _337  and  _339
REMARK  136  A    between atoms: _339  and  _340
REMARK  137  A    between atoms: _339  and  _342
REMARK  138  A    between atoms: _342  and  _343
REMARK  139  A    between atoms: _346  and  _348
REMARK  140  A    between atoms: _348  and  _349
REMARK  141  A    between atoms: _348  and  _351
REMARK  142  A    between atoms: _351  and  _352
REMARK  143  A    between atoms: _357  and  _359
REMARK  144  A    between atoms: _359  and  _360
REMARK  145  A    between atoms: _359  and  _362
REMARK  146  A    between atoms: _362  and  _363
REMARK  147  A    between atoms: _363  and  _365
REMARK  148  A    between atoms: _365  and  ZN_1038
REMARK  149  A    between atoms: _366  and  _368
REMARK  150  A    between atoms: _368  and  _369
REMARK  151  A    between atoms: _368  and  _371
REMARK  152  A    between atoms: _371  and  _372
REMARK  153  A    between atoms: _374  and  _376
REMARK  154  A    between atoms: _376  and  _377
REMARK  155  A    between atoms: _376  and  _379
REMARK  156  A    between atoms: _379  and  _380
REMARK  157  A    between atoms: _382  and  _384
REMARK  158  A    between atoms: _384  and  _385
REMARK  159  A    between atoms: _384  and  _387
REMARK  160  A    between atoms: _387  and  _388
REMARK  161  A    between atoms: _391  and  _393
REMARK  162  A    between atoms: _393  and  _394
REMARK  163  A    between atoms: _393  and  _396
REMARK  164  A    between atoms: _396  and  _397
REMARK  165  A    between atoms: _397  and  _398
REMARK  166  A    between atoms: _401  and  _403
REMARK  167  A    between atoms: _403  and  _404
REMARK  168  A    between atoms: _403  and  _406
REMARK  169  A    between atoms: _406  and  _407
REMARK  170  A    between atoms: _412  and  _413
REMARK  171  A    between atoms: _415  and  _417
REMARK  172  A    between atoms: _417  and  _418
REMARK  173  A    between atoms: _417  and  _420
REMARK  174  A    between atoms: _420  and  _421
REMARK  175  A    between atoms: _424  and  _426
REMARK  176  A    between atoms: _426  and  _427
REMARK  177  A    between atoms: _426  and  _429
REMARK  178  A    between atoms: _429  and  _430
REMARK  179  A    between atoms: _433  and  _435
REMARK  180  A    between atoms: _435  and  _436
REMARK  181  A    between atoms: _435  and  _438
REMARK  182  A    between atoms: _438  and  _439
REMARK  183  A    between atoms: _439  and  _440
REMARK  184  A    between atoms: _440  and  _441
REMARK  185  A    between atoms: _450  and  _452
REMARK  186  A    between atoms: _452  and  _453
REMARK  187  A    between atoms: _452  and  _455
REMARK  188  A    between atoms: _458  and  _460
REMARK  189  A    between atoms: _460  and  _461
REMARK  190  A    between atoms: _460  and  _463
REMARK  191  A    between atoms: _463  and  _464
REMARK  192  A    between atoms: _467  and  _469
REMARK  193  A    between atoms: _469  and  _470
REMARK  194  A    between atoms: _469  and  _472
REMARK  195  A    between atoms: _474  and  _476
REMARK  196  A    between atoms: _476  and  _477
REMARK  197  A    between atoms: _476  and  _479
REMARK  198  A    between atoms: _479  and  _480
REMARK  199  A    between atoms: _490  and  _492
REMARK  200  A    between atoms: _492  and  _493
REMARK  201  A    between atoms: _492  and  _495
REMARK  202  A    between atoms: _495  and  _496
REMARK  203  A    between atoms: _496  and  _497
REMARK  204  A    between atoms: _497  and  _498
REMARK  205  A    between atoms: _498  and  _499
REMARK  206  A    between atoms: _503  and  _505
REMARK  207  A    between atoms: _505  and  _506
REMARK  208  A    between atoms: _505  and  _508
REMARK  209  A    between atoms: _508  and  _509
REMARK  210  A    between atoms: _512  and  _513
REMARK  211  A    between atoms: _519  and  _520
REMARK  212  A    between atoms: _525  and  _527
REMARK  213  A    between atoms: _527  and  _528
REMARK  214  A    between atoms: _527  and  _530
REMARK  215  A    between atoms: _530  and  _531
REMARK  216  A    between atoms: _531  and  _532
REMARK  217  A    between atoms: _535  and  _537
REMARK  218  A    between atoms: _537  and  _538
REMARK  219  A    between atoms: _537  and  _540
REMARK  220  A    between atoms: _540  and  _541
REMARK  221  A    between atoms: _541  and  _542
REMARK  222  A    between atoms: _542  and  _543
REMARK  223  A    between atoms: _552  and  _554
REMARK  224  A    between atoms: _554  and  _555
REMARK  225  A    between atoms: _554  and  _557
REMARK  226  A    between atoms: _557  and  _558
REMARK  227  A    between atoms: _561  and  _563
REMARK  228  A    between atoms: _563  and  _564
REMARK  229  A    between atoms: _563  and  _566
REMARK  230  A    between atoms: _566  and  _567
REMARK  231  A    between atoms: _569  and  _571
REMARK  232  A    between atoms: _571  and  _572
REMARK  233  A    between atoms: _571  and  _574
REMARK  234  A    between atoms: _574  and  _575
REMARK  235  A    between atoms: _575  and  _576
REMARK  236  A    between atoms: _576  and  _577
REMARK  237  A    between atoms: _577  and  _578
REMARK  238  A    between atoms: _582  and  _584
REMARK  239  A    between atoms: _584  and  _585
REMARK  240  A    between atoms: _584  and  _587
REMARK  241  A    between atoms: _587  and  _588
REMARK  242  A    between atoms: _591  and  _593
REMARK  243  A    between atoms: _593  and  _594
REMARK  244  A    between atoms: _596  and  _598
REMARK  245  A    between atoms: _598  and  _599
REMARK  246  A    between atoms: _598  and  _601
REMARK  247  A    between atoms: _601  and  _602
REMARK  248  A    between atoms: _604  and  _606
REMARK  249  A    between atoms: _606  and  _607
REMARK  250  A    between atoms: _609  and  _611
REMARK  251  A    between atoms: _611  and  _612
REMARK  252  A    between atoms: _611  and  _614
REMARK  253  A    between atoms: _614  and  _615
REMARK  254  A    between atoms: _620  and  _622
REMARK  255  A    between atoms: _622  and  _623
REMARK  256  A    between atoms: _622  and  _625
REMARK  257  A    between atoms: _625  and  _626
REMARK  258  A    between atoms: _629  and  _631
REMARK  259  A    between atoms: _631  and  _632
REMARK  260  A    between atoms: _631  and  _634
REMARK  261  A    between atoms: _634  and  _635
REMARK  262  A    between atoms: _641  and  _643
REMARK  263  A    between atoms: _643  and  _644
REMARK  264  A    between atoms: _643  and  _646
REMARK  265  A    between atoms: _646  and  _647
REMARK  266  A    between atoms: _647  and  _648
REMARK  267  A    between atoms: _651  and  _653
REMARK  268  A    between atoms: _653  and  _654
REMARK  269  A    between atoms: _653  and  _656
REMARK  270  A    between atoms: _656  and  _657
REMARK  271  A    between atoms: _657  and  _658
REMARK  272  A    between atoms: _663  and  _665
REMARK  273  A    between atoms: _665  and  _666
REMARK  274  A    between atoms: _665  and  _668
REMARK  275  A    between atoms: _668  and  _669
REMARK  276  A    between atoms: _669  and  _670
REMARK  277  A    between atoms: _670  and  _671
REMARK  278  A    between atoms: _680  and  _682
REMARK  279  A    between atoms: _682  and  _683
REMARK  280  A    between atoms: _682  and  _685
REMARK  281  A    between atoms: _685  and  _686
REMARK  282  A    between atoms: _686  and  _687
REMARK  283  A    between atoms: _687  and  _688
REMARK  284  A    between atoms: _697  and  _699
REMARK  285  A    between atoms: _699  and  _700
REMARK  286  A    between atoms: _699  and  _702
REMARK  287  A    between atoms: _702  and  _703
REMARK  288  A    between atoms: _708  and  _709
REMARK  289  A    between atoms: _711  and  _713
REMARK  290  A    between atoms: _713  and  _714
REMARK  291  A    between atoms: _713  and  _716
REMARK  292  A    between atoms: _716  and  _717
REMARK  293  A    between atoms: _720  and  _722
REMARK  294  A    between atoms: _722  and  _723
REMARK  295  A    between atoms: _722  and  _725
REMARK  296  A    between atoms: _725  and  _726
REMARK  297  A    between atoms: _726  and  _727
REMARK  298  A    between atoms: _727  and  _728
REMARK  299  A    between atoms: _728  and  _729
REMARK  300  A    between atoms: _733  and  _735
REMARK  301  A    between atoms: _735  and  _736
REMARK  302  A    between atoms: _735  and  _738
REMARK  303  A    between atoms: _738  and  _739
REMARK  304  A    between atoms: _744  and  _746
REMARK  305  A    between atoms: _746  and  _747
REMARK  306  A    between atoms: _746  and  _749
REMARK  307  A    between atoms: _749  and  _750
REMARK  308  A    between atoms: _760  and  _762
REMARK  309  A    between atoms: _762  and  _763
REMARK  310  A    between atoms: _762  and  _765
REMARK  311  A    between atoms: _765  and  _766
REMARK  312  A    between atoms: _766  and  _767
REMARK  313  A    between atoms: _770  and  _772
REMARK  314  A    between atoms: _772  and  _773
REMARK  315  A    between atoms: _772  and  _775
REMARK  316  A    between atoms: _775  and  _776
REMARK  317  A    between atoms: _779  and  _781
REMARK  318  A    between atoms: _781  and  _782
REMARK  319  A    between atoms: _781  and  _784
REMARK  320  A    between atoms: _784  and  _785
REMARK  321  A    between atoms: _790  and  _792
REMARK  322  A    between atoms: _792  and  _793
REMARK  323  A    between atoms: _792  and  _795
REMARK  324  A    between atoms: _795  and  _796
REMARK  325  A    between atoms: _802  and  _804
REMARK  326  A    between atoms: _804  and  _805
REMARK  327  A    between atoms: _804  and  _807
REMARK  328  A    between atoms: _807  and  _808
REMARK  329  A    between atoms: _810  and  _812
REMARK  330  A    between atoms: _812  and  _813
REMARK  331  A    between atoms: _815  and  _817
REMARK  332  A    between atoms: _817  and  _818
REMARK  333  A    between atoms: _817  and  _820
REMARK  334  A    between atoms: _820  and  _821
REMARK  335  A    between atoms: _826  and  _827
REMARK  336  A    between atoms: _829  and  _831
REMARK  337  A    between atoms: _831  and  _832
REMARK  338  A    between atoms: _831  and  _834
REMARK  339  A    between atoms: _834  and  _835
REMARK  340  A    between atoms: _840  and  _841
REMARK  341  A    between atoms: _843  and  _845
REMARK  342  A    between atoms: _845  and  _846
REMARK  343  A    between atoms: _845  and  _848
REMARK  344  A    between atoms: _848  and  _849
REMARK  345  A    between atoms: _853  and  ZN_1037
REMARK  346  A    between atoms: _854  and  _856
REMARK  347  A    between atoms: _856  and  _857
REMARK  348  A    between atoms: _856  and  _859
REMARK  349  A    between atoms: _859  and  _860
REMARK  350  A    between atoms: _860  and  _861
REMARK  351  A    between atoms: _864  and  _866
REMARK  352  A    between atoms: _866  and  _867
REMARK  353  A    between atoms: _866  and  _869
REMARK  354  A    between atoms: _869  and  _870
REMARK  355  A    between atoms: _870  and  _871
REMARK  356  A    between atoms: _871  and  _872
REMARK  357  A    between atoms: _881  and  _883
REMARK  358  A    between atoms: _883  and  _884
REMARK  359  A    between atoms: _883  and  _886
REMARK  360  A    between atoms: _886  and  _887
REMARK  361  A    between atoms: _887  and  _888
REMARK  362  A    between atoms: _888  and  _889
REMARK  363  A    between atoms: _889  and  _890
REMARK  364  A    between atoms: _894  and  _896
REMARK  365  A    between atoms: _896  and  _897
REMARK  366  A    between atoms: _896  and  _899
REMARK  367  A    between atoms: _899  and  _900
REMARK  368  A    between atoms: _905  and  _906
REMARK  369  A    between atoms: _908  and  _910
REMARK  370  A    between atoms: _910  and  _911
REMARK  371  A    between atoms: _910  and  _913
REMARK  372  A    between atoms: _913  and  _914
REMARK  373  A    between atoms: _914  and  _915
REMARK  374  A    between atoms: _915  and  _916
REMARK  375  A    between atoms: _916  and  _917
REMARK  376  A    between atoms: _921  and  _923
REMARK  377  A    between atoms: _923  and  _924
REMARK  378  A    between atoms: _923  and  _926
REMARK  379  A    between atoms: _926  and  _927
REMARK  380  A    between atoms: _932  and  _933
REMARK  381  A    between atoms: _935  and  _937
REMARK  382  A    between atoms: _937  and  _938
REMARK  383  A    between atoms: _937  and  _940
REMARK  384  A    between atoms: _940  and  _941
REMARK  385  A    between atoms: _946  and  _947
REMARK  386  A    between atoms: _949  and  _951
REMARK  387  A    between atoms: _951  and  _952
REMARK  388  A    between atoms: _956  and  _957
REMARK  389  A    between atoms: _962  and  _964
REMARK  390  A    between atoms: _964  and  _965
REMARK  391  A    between atoms: _964  and  _967
REMARK  392  A    between atoms: _967  and  _968
REMARK  393  A    between atoms: _970  and  _972
REMARK  394  A    between atoms: _972  and  _973
REMARK  395  A    between atoms: _972  and  _975
REMARK  396  A    between atoms: _975  and  _976
REMARK  397  A    between atoms: _981  and  _983
REMARK  398  A    between atoms: _983  and  _984
REMARK  399  A    between atoms: _983  and  _986
REMARK  400  A    between atoms: _986  and  _987
REMARK  401  A    between atoms: _987  and  _988
REMARK  402  A    between atoms: _988  and  _989
REMARK  403  A    between atoms: _989  and  _990
REMARK  404  A    between atoms: _994  and  _996
REMARK  405  A    between atoms: _996  and  _997
REMARK  406  A    between atoms: _996  and  _999
REMARK  407  A    between atoms: _999  and  _1000
REMARK  408  A    between atoms: _1005  and  _1006
REMARK  409  A    between atoms: _1008  and  _1010
REMARK  410  A    between atoms: _1010  and  _1011
REMARK  411  A    between atoms: _1014  and  _1016
REMARK  412  A    between atoms: _1016  and  _1017
REMARK  413  A    between atoms: _1019  and  _1021
REMARK  414  A    between atoms: _1021  and  _1022
REMARK  415  A    between atoms: _1021  and  _1024
REMARK  416  A    between atoms: _1024  and  _1025
REMARK  417  A    between atoms: _1025  and  _1026
REMARK  418  A    between atoms: _1029  and  _1031
REMARK  419  A    between atoms: _1031  and  _1032
REMARK  420  A    between atoms: _1031  and  _1034
REMARK  421  A    between atoms: _1034  and  _1035
REMARK                            x       y       z     vdW  Elec       q    Type
REMARK                         _______ _______ _______ _____ _____    ______ ____
ROOT
ATOM      1  O   HOH     1      17.407  59.082  44.812  0.00  0.00    +0.000 OA
ENDROOT
TORSDOF 0
REMARK  Name = ../refined-set-2016/2xef/2xef_pocket.pdb
REMARK  421 active torsions:
REMARK  status: ('A' for Active; 'I' for Inactive)
REMARK    1  A    between atoms: _1  and  _3
REMARK    2  A    between atoms: _3  and  _4
REMARK    3  A    between atoms: _7  and  _9
REMARK    4  A    between atoms: _9  and  _10
REMARK    5  A    between atoms: _9  and  _12
REMARK    6  A    between atoms: _12  and  _13
REMARK    7  A    between atoms: _19  and  _21
REMARK    8  A    between atoms: _21  and  _22
REMARK    9  A    between atoms: _21  and  _24
REMARK   10  A    between atoms: _24  and  _25
REMARK   11  A    between atoms: _30  and  _31
REMARK   12  A    between atoms: _33  and  _35
REMARK   13  A    between atoms: _35  and  _36
REMARK   14  A    between atoms: _38  and  _40
REMARK   15  A    between atoms: _40  and  _41
REMARK   16  A    between atoms: _40  and  _43
REMARK   17  A    between atoms: _43  and  _44
REMARK   18  A    between atoms: _44  and  _45
REMARK   19  A    between atoms: _45  and  _46
REMARK   20  A    between atoms: _46  and  _47
REMARK   21  A    between atoms: _51  and  _53
REMARK   22  A    between atoms: _53  and  _54
REMARK   23  A    between atoms: _53  and  _56
REMARK   24  A    between atoms: _59  and  _61
REMARK   25  A    between atoms: _61  and  _62
REMARK   26  A    between atoms: _61  and  _64
REMARK   27  A    between atoms: _64  and  _65
REMARK   28  A    between atoms: _71  and  _73
REMARK   29  A    between atoms: _73  and  _74
REMARK   30  A    between atoms: _73  and  _76
REMARK   31  A    between atoms: _76  and  _77
REMARK   32  A    between atoms: _77  and  _78
REMARK   33  A    between atoms: _78  and  _79
REMARK   34  A    between atoms: _88  and  _90
REMARK   35  A    between atoms: _90  and  _91
REMARK   36  A    between atoms: _93  and  _95
REMARK   37  A    between atoms: _95  and  _96
REMARK   38  A    between atoms: _95  and  _98
REMARK   39  A    between atoms: _98  and  _99
REMARK   40  A    between atoms: _99  and  _100
REMARK   41  A    between atoms: _100  and  _101
REMARK   42  A    between atoms: _101  and  _102
REMARK   43  A    between atoms: _106  and  _108
REMARK   44  A    between atoms: _108  and  _109
REMARK   45  A    between atoms: _108  and  _111
REMARK   46  A    between atoms: _111  and  _112
REMARK   47  A    between atoms: _117  and  _118
REMARK   48  A    between atoms: _120  and  _122
REMARK   49  A    between atoms: _122  and  _123
REMARK   50  A    between atoms: _122  and  _125
REMARK   51  A    between atoms: _125  and  _126
REMARK   52  A    between atoms: _126  and  _127
REMARK   53  A    between atoms: _132  and  _134
REMARK   54  A    between atoms: _134  and  _135
REMARK   55  A    between atoms: _134  and  _137
REMARK   56  A    between atoms: _137  and  _138
REMARK   57  A    between atoms: _138  and  _139
REMARK   58  A    between atoms: _139  and  _140
REMARK   59  A    between atoms: _149  and  _151
REMARK   60  A    between atoms: _151  and  _152
REMARK   61  A    between atoms: _154  and  _156
REMARK   62  A    between atoms: _156  and  _157
REMARK   63  A    between atoms: _156  and  _159
REMARK   64  A    between atoms: _159  and  _160
REMARK   65  A    between atoms: _165  and  _167
REMARK   66  A    between atoms: _167  and  _168
REMARK   67  A    between atoms: _167  and  _170
REMARK   68  A    between atoms: _170  and  _171
REMARK   69  A    between atoms: _174  and  _176
REMARK   70  A    between atoms: _176  and  _177
REMARK   71  A    between atoms: _176  and  _179
REMARK   72  A    between atoms: _179  and  _180
REMARK   73  A    between atoms: _183  and  _185
REMARK   74  A    between atoms: _185  and  _186
REMARK   75  A    between atoms: _185  and  _188
REMARK   76  A    between atoms: _188  and  _189
REMARK   77  A    between atoms: _194  and  _196
REMARK   78  A    between atoms: _196  and  _197
REMARK   79  A    between atoms: _196  and  _199
REMARK   80  A    between atoms: _199  and  _200
REMARK   81  A    between atoms: _203  and  _205
REMARK   82  A    between atoms: _205  and  _206
REMARK   83  A    between atoms: _205  and  _208
REMARK   84  A    between atoms: _208  and  _209
REMARK   85  A    between atoms: _214  and  _216
REMARK   86  A    between atoms: _216  and  _217
REMARK   87  A    between atoms: _219  and  _221
REMARK   88  A    between atoms: _221  and  _222
REMARK   89  A    between atoms: _224  and  _226
REMARK   90  A    between atoms: _226  and  _227
REMARK   91  A    between atoms: _226  and  _229
REMARK   92  A    between atoms: _229  and  _230
REMARK   93  A    between atoms: _234  and  ZN_1038
REMARK   94  A    between atoms: _235  and  _237
REMARK   95  A    between atoms: _237  and  _238
REMARK   96  A    between atoms: _237  and  _240
REMARK   97  A    between atoms: _240  and  _241
REMARK   98  A    between atoms: _244  and  _246
REMARK   99  A    between atoms: _246  and  _247
REMARK  100  A    between atoms: _246  and  _249
REMARK  101  A    between atoms: _249  and  _250
REMARK  102  A    between atoms: _260  and  _262
REMARK  103  A    between atoms: _262  and  _263
REMARK  104  A    between atoms: _262  and  _265
REMARK  105  A    between atoms: _265  and  _266
REMARK  106  A    between atoms: _269  and  _271
REMARK  107  A    between atoms: _271  and  _272
REMARK  108  A    between atoms: _271  and  _274
REMARK  109  A    between atoms: _274  and  _275
REMARK  110  A    between atoms: _279  and  _280
REMARK  111  A    between atoms: _285  and  _287
REMARK  112  A    between atoms: _287  and  _288
REMARK  113  A    between atoms: _291  and  _293
REMARK  114  A    between atoms: _293  and  _294
REMARK  115  A    between atoms: _293  and  _296
REMARK  116  A    between atoms: _296  and  _297
REMARK  117  A    between atoms: _297  and  _298
REMARK  118  A    between atoms: _301  and  _303
REMARK  119  A    between atoms: _303  and  _304
REMARK  120  A    between atoms: _303  and  _306
REMARK  121  A    between atoms: _306  and  _307
REMARK  122  A    between atoms: _307  and  _308
REMARK  123  A    between atoms: _308  and  _310
REMARK  124  A    between atoms: _310  and  ZN_1037
REMARK  125  A    between atoms: _311  and  _313
REMARK  126  A    between atoms: _313  and  _314
REMARK  127  A    between atoms: _313  and  _316
REMARK  128  A    between atoms: _316  and  _317
REMARK  129  A    between atoms: _323  and  _325
REMARK  130  A    between atoms: _325  and  _326
REMARK  131  A    between atoms: _328  and  _330
REMARK  132  A    between atoms: _330  and  _331
REMARK  133  A    between atoms: _330  and  _333
REMARK  134  A    between atoms: _333  and  _334
REMARK  135  A    between atoms: _337  and  _339
REMARK  136  A    between atoms: _339  and  _340
REMARK  137  A    between atoms: _339  and  _342
REMARK  138  A    between atoms: _342  and  _343
REMARK  139  A    between atoms: _346  and  _348
REMARK  140  A    between atoms: _348  and  _349
REMARK  141  A    between atoms: _348  and  _351
REMARK  142  A    between atoms: _351  and  _352
REMARK  143  A    between atoms: _357  and  _359
REMARK  144  A    between atoms: _359  and  _360
REMARK  145  A    between atoms: _359  and  _362
REMARK  146  A    between atoms: _362  and  _363
REMARK  147  A    between atoms: _363  and  _365
REMARK  148  A    between atoms: _365  and  ZN_1038
REMARK  149  A    between atoms: _366  and  _368
REMARK  150  A    between atoms: _368  and  _369
REMARK  151  A    between atoms: _368  and  _371
REMARK  152  A    between atoms: _371  and  _372
REMARK  153  A    between atoms: _374  and  _376
REMARK  154  A    between atoms: _376  and  _377
REMARK  155  A    between atoms: _376  and  _379
REMARK  156  A    between atoms: _379  and  _380
REMARK  157  A    between atoms: _382  and  _384
REMARK  158  A    between atoms: _384  and  _385
REMARK  159  A    between atoms: _384  and  _387
REMARK  160  A    between atoms: _387  and  _388
REMARK  161  A    between atoms: _391  and  _393
REMARK  162  A    between atoms: _393  and  _394
REMARK  163  A    between atoms: _393  and  _396
REMARK  164  A    between atoms: _396  and  _397
REMARK  165  A    between atoms: _397  and  _398
REMARK  166  A    between atoms: _401  and  _403
REMARK  167  A    between atoms: _403  and  _404
REMARK  168  A    between atoms: _403  and  _406
REMARK  169  A    between atoms: _406  and  _407
REMARK  170  A    between atoms: _412  and  _413
REMARK  171  A    between atoms: _415  and  _417
REMARK  172  A    between atoms: _417  and  _418
REMARK  173  A    between atoms: _417  and  _420
REMARK  174  A    between atoms: _420  and  _421
REMARK  175  A    between atoms: _424  and  _426
REMARK  176  A    between atoms: _426  and  _427
REMARK  177  A    between atoms: _426  and  _429
REMARK  178  A    between atoms: _429  and  _430
REMARK  179  A    between atoms: _433  and  _435
REMARK  180  A    between atoms: _435  and  _436
REMARK  181  A    between atoms: _435  and  _438
REMARK  182  A    between atoms: _438  and  _439
REMARK  183  A    between atoms: _439  and  _440
REMARK  184  A    between atoms: _440  and  _441
REMARK  185  A    between atoms: _450  and  _452
REMARK  186  A    between atoms: _452  and  _453
REMARK  187  A    between atoms: _452  and  _455
REMARK  188  A    between atoms: _458  and  _460
REMARK  189  A    between atoms: _460  and  _461
REMARK  190  A    between atoms: _460  and  _463
REMARK  191  A    between atoms: _463  and  _464
REMARK  192  A    between atoms: _467  and  _469
REMARK  193  A    between atoms: _469  and  _470
REMARK  194  A    between atoms: _469  and  _472
REMARK  195  A    between atoms: _474  and  _476
REMARK  196  A    between atoms: _476  and  _477
REMARK  197  A    between atoms: _476  and  _479
REMARK  198  A    between atoms: _479  and  _480
REMARK  199  A    between atoms: _490  and  _492
REMARK  200  A    between atoms: _492  and  _493
REMARK  201  A    between atoms: _492  and  _495
REMARK  202  A    between atoms: _495  and  _496
REMARK  203  A    between atoms: _496  and  _497
REMARK  204  A    between atoms: _497  and  _498
REMARK  205  A    between atoms: _498  and  _499
REMARK  206  A    between atoms: _503  and  _505
REMARK  207  A    between atoms: _505  and  _506
REMARK  208  A    between atoms: _505  and  _508
REMARK  209  A    between atoms: _508  and  _509
REMARK  210  A    between atoms: _512  and  _513
REMARK  211  A    between atoms: _519  and  _520
REMARK  212  A    between atoms: _525  and  _527
REMARK  213  A    between atoms: _527  and  _528
REMARK  214  A    between atoms: _527  and  _530
REMARK  215  A    between atoms: _530  and  _531
REMARK  216  A    between atoms: _531  and  _532
REMARK  217  A    between atoms: _535  and  _537
REMARK  218  A    between atoms: _537  and  _538
REMARK  219  A    between atoms: _537  and  _540
REMARK  220  A    between atoms: _540  and  _541
REMARK  221  A    between atoms: _541  and  _542
REMARK  222  A    between atoms: _542  and  _543
REMARK  223  A    between atoms: _552  and  _554
REMARK  224  A    between atoms: _554  and  _555
REMARK  225  A    between atoms: _554  and  _557
REMARK  226  A    between atoms: _557  and  _558
REMARK  227  A    between atoms: _561  and  _563
REMARK  228  A    between atoms: _563  and  _564
REMARK  229  A    between atoms: _563  and  _566
REMARK  230  A    between atoms: _566  and  _567
REMARK  231  A    between atoms: _569  and  _571
REMARK  232  A    between atoms: _571  and  _572
REMARK  233  A    between atoms: _571  and  _574
REMARK  234  A    between atoms: _574  and  _575
REMARK  235  A    between atoms: _575  and  _576
REMARK  236  A    between atoms: _576  and  _577
REMARK  237  A    between atoms: _577  and  _578
REMARK  238  A    between atoms: _582  and  _584
REMARK  239  A    between atoms: _584  and  _585
REMARK  240  A    between atoms: _584  and  _587
REMARK  241  A    between atoms: _587  and  _588
REMARK  242  A    between atoms: _591  and  _593
REMARK  243  A    between atoms: _593  and  _594
REMARK  244  A    between atoms: _596  and  _598
REMARK  245  A    between atoms: _598  and  _599
REMARK  246  A    between atoms: _598  and  _601
REMARK  247  A    between atoms: _601  and  _602
REMARK  248  A    between atoms: _604  and  _606
REMARK  249  A    between atoms: _606  and  _607
REMARK  250  A    between atoms: _609  and  _611
REMARK  251  A    between atoms: _611  and  _612
REMARK  252  A    between atoms: _611  and  _614
REMARK  253  A    between atoms: _614  and  _615
REMARK  254  A    between atoms: _620  and  _622
REMARK  255  A    between atoms: _622  and  _623
REMARK  256  A    between atoms: _622  and  _625
REMARK  257  A    between atoms: _625  and  _626
REMARK  258  A    between atoms: _629  and  _631
REMARK  259  A    between atoms: _631  and  _632
REMARK  260  A    between atoms: _631  and  _634
REMARK  261  A    between atoms: _634  and  _635
REMARK  262  A    between atoms: _641  and  _643
REMARK  263  A    between atoms: _643  and  _644
REMARK  264  A    between atoms: _643  and  _646
REMARK  265  A    between atoms: _646  and  _647
REMARK  266  A    between atoms: _647  and  _648
REMARK  267  A    between atoms: _651  and  _653
REMARK  268  A    between atoms: _653  and  _654
REMARK  269  A    between atoms: _653  and  _656
REMARK  270  A    between atoms: _656  and  _657
REMARK  271  A    between atoms: _657  and  _658
REMARK  272  A    between atoms: _663  and  _665
REMARK  273  A    between atoms: _665  and  _666
REMARK  274  A    between atoms: _665  and  _668
REMARK  275  A    between atoms: _668  and  _669
REMARK  276  A    between atoms: _669  and  _670
REMARK  277  A    between atoms: _670  and  _671
REMARK  278  A    between atoms: _680  and  _682
REMARK  279  A    between atoms: _682  and  _683
REMARK  280  A    between atoms: _682  and  _685
REMARK  281  A    between atoms: _685  and  _686
REMARK  282  A    between atoms: _686  and  _687
REMARK  283  A    between atoms: _687  and  _688
REMARK  284  A    between atoms: _697  and  _699
REMARK  285  A    between atoms: _699  and  _700
REMARK  286  A    between atoms: _699  and  _702
REMARK  287  A    between atoms: _702  and  _703
REMARK  288  A    between atoms: _708  and  _709
REMARK  289  A    between atoms: _711  and  _713
REMARK  290  A    between atoms: _713  and  _714
REMARK  291  A    between atoms: _713  and  _716
REMARK  292  A    between atoms: _716  and  _717
REMARK  293  A    between atoms: _720  and  _722
REMARK  294  A    between atoms: _722  and  _723
REMARK  295  A    between atoms: _722  and  _725
REMARK  296  A    between atoms: _725  and  _726
REMARK  297  A    between atoms: _726  and  _727
REMARK  298  A    between atoms: _727  and  _728
REMARK  299  A    between atoms: _728  and  _729
REMARK  300  A    between atoms: _733  and  _735
REMARK  301  A    between atoms: _735  and  _736
REMARK  302  A    between atoms: _735  and  _738
REMARK  303  A    between atoms: _738  and  _739
REMARK  304  A    between atoms: _744  and  _746
REMARK  305  A    between atoms: _746  and  _747
REMARK  306  A    between atoms: _746  and  _749
REMARK  307  A    between atoms: _749  and  _750
REMARK  308  A    between atoms: _760  and  _762
REMARK  309  A    between atoms: _762  and  _763
REMARK  310  A    between atoms: _762  and  _765
REMARK  311  A    between atoms: _765  and  _766
REMARK  312  A    between atoms: _766  and  _767
REMARK  313  A    between atoms: _770  and  _772
REMARK  314  A    between atoms: _772  and  _773
REMARK  315  A    between atoms: _772  and  _775
REMARK  316  A    between atoms: _775  and  _776
REMARK  317  A    between atoms: _779  and  _781
REMARK  318  A    between atoms: _781  and  _782
REMARK  319  A    between atoms: _781  and  _784
REMARK  320  A    between atoms: _784  and  _785
REMARK  321  A    between atoms: _790  and  _792
REMARK  322  A    between atoms: _792  and  _793
REMARK  323  A    between atoms: _792  and  _795
REMARK  324  A    between atoms: _795  and  _796
REMARK  325  A    between atoms: _802  and  _804
REMARK  326  A    between atoms: _804  and  _805
REMARK  327  A    between atoms: _804  and  _807
REMARK  328  A    between atoms: _807  and  _808
REMARK  329  A    between atoms: _810  and  _812
REMARK  330  A    between atoms: _812  and  _813
REMARK  331  A    between atoms: _815  and  _817
REMARK  332  A    between atoms: _817  and  _818
REMARK  333  A    between atoms: _817  and  _820
REMARK  334  A    between atoms: _820  and  _821
REMARK  335  A    between atoms: _826  and  _827
REMARK  336  A    between atoms: _829  and  _831
REMARK  337  A    between atoms: _831  and  _832
REMARK  338  A    between atoms: _831  and  _834
REMARK  339  A    between atoms: _834  and  _835
REMARK  340  A    between atoms: _840  and  _841
REMARK  341  A    between atoms: _843  and  _845
REMARK  342  A    between atoms: _845  and  _846
REMARK  343  A    between atoms: _845  and  _848
REMARK  344  A    between atoms: _848  and  _849
REMARK  345  A    between atoms: _853  and  ZN_1037
REMARK  346  A    between atoms: _854  and  _856
REMARK  347  A    between atoms: _856  and  _857
REMARK  348  A    between atoms: _856  and  _859
REMARK  349  A    between atoms: _859  and  _860
REMARK  350  A    between atoms: _860  and  _861
REMARK  351  A    between atoms: _864  and  _866
REMARK  352  A    between atoms: _866  and  _867
REMARK  353  A    between atoms: _866  and  _869
REMARK  354  A    between atoms: _869  and  _870
REMARK  355  A    between atoms: _870  and  _871
REMARK  356  A    between atoms: _871  and  _872
REMARK  357  A    between atoms: _881  and  _883
REMARK  358  A    between atoms: _883  and  _884
REMARK  359  A    between atoms: _883  and  _886
REMARK  360  A    between atoms: _886  and  _887
REMARK  361  A    between atoms: _887  and  _888
REMARK  362  A    between atoms: _888  and  _889
REMARK  363  A    between atoms: _889  and  _890
REMARK  364  A    between atoms: _894  and  _896
REMARK  365  A    between atoms: _896  and  _897
REMARK  366  A    between atoms: _896  and  _899
REMARK  367  A    between atoms: _899  and  _900
REMARK  368  A    between atoms: _905  and  _906
REMARK  369  A    between atoms: _908  and  _910
REMARK  370  A    between atoms: _910  and  _911
REMARK  371  A    between atoms: _910  and  _913
REMARK  372  A    between atoms: _913  and  _914
REMARK  373  A    between atoms: _914  and  _915
REMARK  374  A    between atoms: _915  and  _916
REMARK  375  A    between atoms: _916  and  _917
REMARK  376  A    between atoms: _921  and  _923
REMARK  377  A    between atoms: _923  and  _924
REMARK  378  A    between atoms: _923  and  _926
REMARK  379  A    between atoms: _926  and  _927
REMARK  380  A    between atoms: _932  and  _933
REMARK  381  A    between atoms: _935  and  _937
REMARK  382  A    between atoms: _937  and  _938
REMARK  383  A    between atoms: _937  and  _940
REMARK  384  A    between atoms: _940  and  _941
REMARK  385  A    between atoms: _946  and  _947
REMARK  386  A    between atoms: _949  and  _951
REMARK  387  A    between atoms: _951  and  _952
REMARK  388  A    between atoms: _956  and  _957
REMARK  389  A    between atoms: _962  and  _964
REMARK  390  A    between atoms: _964  and  _965
REMARK  391  A    between atoms: _964  and  _967
REMARK  392  A    between atoms: _967  and  _968
REMARK  393  A    between atoms: _970  and  _972
REMARK  394  A    between atoms: _972  and  _973
REMARK  395  A    between atoms: _972  and  _975
REMARK  396  A    between atoms: _975  and  _976
REMARK  397  A    between atoms: _981  and  _983
REMARK  398  A    between atoms: _983  and  _984
REMARK  399  A    between atoms: _983  and  _986
REMARK  400  A    between atoms: _986  and  _987
REMARK  401  A    between atoms: _987  and  _988
REMARK  402  A    between atoms: _988  and  _989
REMARK  403  A    between atoms: _989  and  _990
REMARK  404  A    between atoms: _994  and  _996
REMARK  405  A    between atoms: _996  and  _997
REMARK  406  A    between atoms: _996  and  _999
REMARK  407  A    between atoms: _999  and  _1000
REMARK  408  A    between atoms: _1005  and  _1006
REMARK  409  A    between atoms: _1008  and  _1010
REMARK  410  A    between atoms: _1010  and  _1011
REMARK  411  A    between atoms: _1014  and  _1016
REMARK  412  A    between atoms: _1016  and  _1017
REMARK  413  A    between atoms: _1019  and  _1021
REMARK  414  A    between atoms: _1021  and  _1022
REMARK  415  A    between atoms: _1021  and  _1024
REMARK  416  A    between atoms: _1024  and  _1025
REMARK  417  A    between atoms: _1025  and  _1026
REMARK  418  A    between atoms: _1029  and  _1031
REMARK  419  A    between atoms: _1031  and  _1032
REMARK  420  A    between atoms: _1031  and  _1034
REMARK  421  A    between atoms: _1034  and  _1035
REMARK                            x       y       z     vdW  Elec       q    Type
REMARK                         _______ _______ _______ _____ _____    ______ ____
ROOT
ATOM      1  O   HOH     1      19.685  49.372  44.909  0.00  0.00    +0.000 OA
ENDROOT
TORSDOF 0
REMARK  Name = ../refined-set-2016/2xef/2xef_pocket.pdb
REMARK  421 active torsions:
REMARK  status: ('A' for Active; 'I' for Inactive)
REMARK    1  A    between atoms: _1  and  _3
REMARK    2  A    between atoms: _3  and  _4
REMARK    3  A    between atoms: _7  and  _9
REMARK    4  A    between atoms: _9  and  _10
REMARK    5  A    between atoms: _9  and  _12
REMARK    6  A    between atoms: _12  and  _13
REMARK    7  A    between atoms: _19  and  _21
REMARK    8  A    between atoms: _21  and  _22
REMARK    9  A    between atoms: _21  and  _24
REMARK   10  A    between atoms: _24  and  _25
REMARK   11  A    between atoms: _30  and  _31
REMARK   12  A    between atoms: _33  and  _35
REMARK   13  A    between atoms: _35  and  _36
REMARK   14  A    between atoms: _38  and  _40
REMARK   15  A    between atoms: _40  and  _41
REMARK   16  A    between atoms: _40  and  _43
REMARK   17  A    between atoms: _43  and  _44
REMARK   18  A    between atoms: _44  and  _45
REMARK   19  A    between atoms: _45  and  _46
REMARK   20  A    between atoms: _46  and  _47
REMARK   21  A    between atoms: _51  and  _53
REMARK   22  A    between atoms: _53  and  _54
REMARK   23  A    between atoms: _53  and  _56
REMARK   24  A    between atoms: _59  and  _61
REMARK   25  A    between atoms: _61  and  _62
REMARK   26  A    between atoms: _61  and  _64
REMARK   27  A    between atoms: _64  and  _65
REMARK   28  A    between atoms: _71  and  _73
REMARK   29  A    between atoms: _73  and  _74
REMARK   30  A    between atoms: _73  and  _76
REMARK   31  A    between atoms: _76  and  _77
REMARK   32  A    between atoms: _77  and  _78
REMARK   33  A    between atoms: _78  and  _79
REMARK   34  A    between atoms: _88  and  _90
REMARK   35  A    between atoms: _90  and  _91
REMARK   36  A    between atoms: _93  and  _95
REMARK   37  A    between atoms: _95  and  _96
REMARK   38  A    between atoms: _95  and  _98
REMARK   39  A    between atoms: _98  and  _99
REMARK   40  A    between atoms: _99  and  _100
REMARK   41  A    between atoms: _100  and  _101
REMARK   42  A    between atoms: _101  and  _102
REMARK   43  A    between atoms: _106  and  _108
REMARK   44  A    between atoms: _108  and  _109
REMARK   45  A    between atoms: _108  and  _111
REMARK   46  A    between atoms: _111  and  _112
REMARK   47  A    between atoms: _117  and  _118
REMARK   48  A    between atoms: _120  and  _122
REMARK   49  A    between atoms: _122  and  _123
REMARK   50  A    between atoms: _122  and  _125
REMARK   51  A    between atoms: _125  and  _126
REMARK   52  A    between atoms: _126  and  _127
REMARK   53  A    between atoms: _132  and  _134
REMARK   54  A    between atoms: _134  and  _135
REMARK   55  A    between atoms: _134  and  _137
REMARK   56  A    between atoms: _137  and  _138
REMARK   57  A    between atoms: _138  and  _139
REMARK   58  A    between atoms: _139  and  _140
REMARK   59  A    between atoms: _149  and  _151
REMARK   60  A    between atoms: _151  and  _152
REMARK   61  A    between atoms: _154  and  _156
REMARK   62  A    between atoms: _156  and  _157
REMARK   63  A    between atoms: _156  and  _159
REMARK   64  A    between atoms: _159  and  _160
REMARK   65  A    between atoms: _165  and  _167
REMARK   66  A    between atoms: _167  and  _168
REMARK   67  A    between atoms: _167  and  _170
REMARK   68  A    between atoms: _170  and  _171
REMARK   69  A    between atoms: _174  and  _176
REMARK   70  A    between atoms: _176  and  _177
REMARK   71  A    between atoms: _176  and  _179
REMARK   72  A    between atoms: _179  and  _180
REMARK   73  A    between atoms: _183  and  _185
REMARK   74  A    between atoms: _185  and  _186
REMARK   75  A    between atoms: _185  and  _188
REMARK   76  A    between atoms: _188  and  _189
REMARK   77  A    between atoms: _194  and  _196
REMARK   78  A    between atoms: _196  and  _197
REMARK   79  A    between atoms: _196  and  _199
REMARK   80  A    between atoms: _199  and  _200
REMARK   81  A    between atoms: _203  and  _205
REMARK   82  A    between atoms: _205  and  _206
REMARK   83  A    between atoms: _205  and  _208
REMARK   84  A    between atoms: _208  and  _209
REMARK   85  A    between atoms: _214  and  _216
REMARK   86  A    between atoms: _216  and  _217
REMARK   87  A    between atoms: _219  and  _221
REMARK   88  A    between atoms: _221  and  _222
REMARK   89  A    between atoms: _224  and  _226
REMARK   90  A    between atoms: _226  and  _227
REMARK   91  A    between atoms: _226  and  _229
REMARK   92  A    between atoms: _229  and  _230
REMARK   93  A    between atoms: _234  and  ZN_1038
REMARK   94  A    between atoms: _235  and  _237
REMARK   95  A    between atoms: _237  and  _238
REMARK   96  A    between atoms: _237  and  _240
REMARK   97  A    between atoms: _240  and  _241
REMARK   98  A    between atoms: _244  and  _246
REMARK   99  A    between atoms: _246  and  _247
REMARK  100  A    between atoms: _246  and  _249
REMARK  101  A    between atoms: _249  and  _250
REMARK  102  A    between atoms: _260  and  _262
REMARK  103  A    between atoms: _262  and  _263
REMARK  104  A    between atoms: _262  and  _265
REMARK  105  A    between atoms: _265  and  _266
REMARK  106  A    between atoms: _269  and  _271
REMARK  107  A    between atoms: _271  and  _272
REMARK  108  A    between atoms: _271  and  _274
REMARK  109  A    between atoms: _274  and  _275
REMARK  110  A    between atoms: _279  and  _280
REMARK  111  A    between atoms: _285  and  _287
REMARK  112  A    between atoms: _287  and  _288
REMARK  113  A    between atoms: _291  and  _293
REMARK  114  A    between atoms: _293  and  _294
REMARK  115  A    between atoms: _293  and  _296
REMARK  116  A    between atoms: _296  and  _297
REMARK  117  A    between atoms: _297  and  _298
REMARK  118  A    between atoms: _301  and  _303
REMARK  119  A    between atoms: _303  and  _304
REMARK  120  A    between atoms: _303  and  _306
REMARK  121  A    between atoms: _306  and  _307
REMARK  122  A    between atoms: _307  and  _308
REMARK  123  A    between atoms: _308  and  _310
REMARK  124  A    between atoms: _310  and  ZN_1037
REMARK  125  A    between atoms: _311  and  _313
REMARK  126  A    between atoms: _313  and  _314
REMARK  127  A    between atoms: _313  and  _316
REMARK  128  A    between atoms: _316  and  _317
REMARK  129  A    between atoms: _323  and  _325
REMARK  130  A    between atoms: _325  and  _326
REMARK  131  A    between atoms: _328  and  _330
REMARK  132  A    between atoms: _330  and  _331
REMARK  133  A    between atoms: _330  and  _333
REMARK  134  A    between atoms: _333  and  _334
REMARK  135  A    between atoms: _337  and  _339
REMARK  136  A    between atoms: _339  and  _340
REMARK  137  A    between atoms: _339  and  _342
REMARK  138  A    between atoms: _342  and  _343
REMARK  139  A    between atoms: _346  and  _348
REMARK  140  A    between atoms: _348  and  _349
REMARK  141  A    between atoms: _348  and  _351
REMARK  142  A    between atoms: _351  and  _352
REMARK  143  A    between atoms: _357  and  _359
REMARK  144  A    between atoms: _359  and  _360
REMARK  145  A    between atoms: _359  and  _362
REMARK  146  A    between atoms: _362  and  _363
REMARK  147  A    between atoms: _363  and  _365
REMARK  148  A    between atoms: _365  and  ZN_1038
REMARK  149  A    between atoms: _366  and  _368
REMARK  150  A    between atoms: _368  and  _369
REMARK  151  A    between atoms: _368  and  _371
REMARK  152  A    between atoms: _371  and  _372
REMARK  153  A    between atoms: _374  and  _376
REMARK  154  A    between atoms: _376  and  _377
REMARK  155  A    between atoms: _376  and  _379
REMARK  156  A    between atoms: _379  and  _380
REMARK  157  A    between atoms: _382  and  _384
REMARK  158  A    between atoms: _384  and  _385
REMARK  159  A    between atoms: _384  and  _387
REMARK  160  A    between atoms: _387  and  _388
REMARK  161  A    between atoms: _391  and  _393
REMARK  162  A    between atoms: _393  and  _394
REMARK  163  A    between atoms: _393  and  _396
REMARK  164  A    between atoms: _396  and  _397
REMARK  165  A    between atoms: _397  and  _398
REMARK  166  A    between atoms: _401  and  _403
REMARK  167  A    between atoms: _403  and  _404
REMARK  168  A    between atoms: _403  and  _406
REMARK  169  A    between atoms: _406  and  _407
REMARK  170  A    between atoms: _412  and  _413
REMARK  171  A    between atoms: _415  and  _417
REMARK  172  A    between atoms: _417  and  _418
REMARK  173  A    between atoms: _417  and  _420
REMARK  174  A    between atoms: _420  and  _421
REMARK  175  A    between atoms: _424  and  _426
REMARK  176  A    between atoms: _426  and  _427
REMARK  177  A    between atoms: _426  and  _429
REMARK  178  A    between atoms: _429  and  _430
REMARK  179  A    between atoms: _433  and  _435
REMARK  180  A    between atoms: _435  and  _436
REMARK  181  A    between atoms: _435  and  _438
REMARK  182  A    between atoms: _438  and  _439
REMARK  183  A    between atoms: _439  and  _440
REMARK  184  A    between atoms: _440  and  _441
REMARK  185  A    between atoms: _450  and  _452
REMARK  186  A    between atoms: _452  and  _453
REMARK  187  A    between atoms: _452  and  _455
REMARK  188  A    between atoms: _458  and  _460
REMARK  189  A    between atoms: _460  and  _461
REMARK  190  A    between atoms: _460  and  _463
REMARK  191  A    between atoms: _463  and  _464
REMARK  192  A    between atoms: _467  and  _469
REMARK  193  A    between atoms: _469  and  _470
REMARK  194  A    between atoms: _469  and  _472
REMARK  195  A    between atoms: _474  and  _476
REMARK  196  A    between atoms: _476  and  _477
REMARK  197  A    between atoms: _476  and  _479
REMARK  198  A    between atoms: _479  and  _480
REMARK  199  A    between atoms: _490  and  _492
REMARK  200  A    between atoms: _492  and  _493
REMARK  201  A    between atoms: _492  and  _495
REMARK  202  A    between atoms: _495  and  _496
REMARK  203  A    between atoms: _496  and  _497
REMARK  204  A    between atoms: _497  and  _498
REMARK  205  A    between atoms: _498  and  _499
REMARK  206  A    between atoms: _503  and  _505
REMARK  207  A    between atoms: _505  and  _506
REMARK  208  A    between atoms: _505  and  _508
REMARK  209  A    between atoms: _508  and  _509
REMARK  210  A    between atoms: _512  and  _513
REMARK  211  A    between atoms: _519  and  _520
REMARK  212  A    between atoms: _525  and  _527
REMARK  213  A    between atoms: _527  and  _528
REMARK  214  A    between atoms: _527  and  _530
REMARK  215  A    between atoms: _530  and  _531
REMARK  216  A    between atoms: _531  and  _532
REMARK  217  A    between atoms: _535  and  _537
REMARK  218  A    between atoms: _537  and  _538
REMARK  219  A    between atoms: _537  and  _540
REMARK  220  A    between atoms: _540  and  _541
REMARK  221  A    between atoms: _541  and  _542
REMARK  222  A    between atoms: _542  and  _543
REMARK  223  A    between atoms: _552  and  _554
REMARK  224  A    between atoms: _554  and  _555
REMARK  225  A    between atoms: _554  and  _557
REMARK  226  A    between atoms: _557  and  _558
REMARK  227  A    between atoms: _561  and  _563
REMARK  228  A    between atoms: _563  and  _564
REMARK  229  A    between atoms: _563  and  _566
REMARK  230  A    between atoms: _566  and  _567
REMARK  231  A    between atoms: _569  and  _571
REMARK  232  A    between atoms: _571  and  _572
REMARK  233  A    between atoms: _571  and  _574
REMARK  234  A    between atoms: _574  and  _575
REMARK  235  A    between atoms: _575  and  _576
REMARK  236  A    between atoms: _576  and  _577
REMARK  237  A    between atoms: _577  and  _578
REMARK  238  A    between atoms: _582  and  _584
REMARK  239  A    between atoms: _584  and  _585
REMARK  240  A    between atoms: _584  and  _587
REMARK  241  A    between atoms: _587  and  _588
REMARK  242  A    between atoms: _591  and  _593
REMARK  243  A    between atoms: _593  and  _594
REMARK  244  A    between atoms: _596  and  _598
REMARK  245  A    between atoms: _598  and  _599
REMARK  246  A    between atoms: _598  and  _601
REMARK  247  A    between atoms: _601  and  _602
REMARK  248  A    between atoms: _604  and  _606
REMARK  249  A    between atoms: _606  and  _607
REMARK  250  A    between atoms: _609  and  _611
REMARK  251  A    between atoms: _611  and  _612
REMARK  252  A    between atoms: _611  and  _614
REMARK  253  A    between atoms: _614  and  _615
REMARK  254  A    between atoms: _620  and  _622
REMARK  255  A    between atoms: _622  and  _623
REMARK  256  A    between atoms: _622  and  _625
REMARK  257  A    between atoms: _625  and  _626
REMARK  258  A    between atoms: _629  and  _631
REMARK  259  A    between atoms: _631  and  _632
REMARK  260  A    between atoms: _631  and  _634
REMARK  261  A    between atoms: _634  and  _635
REMARK  262  A    between atoms: _641  and  _643
REMARK  263  A    between atoms: _643  and  _644
REMARK  264  A    between atoms: _643  and  _646
REMARK  265  A    between atoms: _646  and  _647
REMARK  266  A    between atoms: _647  and  _648
REMARK  267  A    between atoms: _651  and  _653
REMARK  268  A    between atoms: _653  and  _654
REMARK  269  A    between atoms: _653  and  _656
REMARK  270  A    between atoms: _656  and  _657
REMARK  271  A    between atoms: _657  and  _658
REMARK  272  A    between atoms: _663  and  _665
REMARK  273  A    between atoms: _665  and  _666
REMARK  274  A    between atoms: _665  and  _668
REMARK  275  A    between atoms: _668  and  _669
REMARK  276  A    between atoms: _669  and  _670
REMARK  277  A    between atoms: _670  and  _671
REMARK  278  A    between atoms: _680  and  _682
REMARK  279  A    between atoms: _682  and  _683
REMARK  280  A    between atoms: _682  and  _685
REMARK  281  A    between atoms: _685  and  _686
REMARK  282  A    between atoms: _686  and  _687
REMARK  283  A    between atoms: _687  and  _688
REMARK  284  A    between atoms: _697  and  _699
REMARK  285  A    between atoms: _699  and  _700
REMARK  286  A    between atoms: _699  and  _702
REMARK  287  A    between atoms: _702  and  _703
REMARK  288  A    between atoms: _708  and  _709
REMARK  289  A    between atoms: _711  and  _713
REMARK  290  A    between atoms: _713  and  _714
REMARK  291  A    between atoms: _713  and  _716
REMARK  292  A    between atoms: _716  and  _717
REMARK  293  A    between atoms: _720  and  _722
REMARK  294  A    between atoms: _722  and  _723
REMARK  295  A    between atoms: _722  and  _725
REMARK  296  A    between atoms: _725  and  _726
REMARK  297  A    between atoms: _726  and  _727
REMARK  298  A    between atoms: _727  and  _728
REMARK  299  A    between atoms: _728  and  _729
REMARK  300  A    between atoms: _733  and  _735
REMARK  301  A    between atoms: _735  and  _736
REMARK  302  A    between atoms: _735  and  _738
REMARK  303  A    between atoms: _738  and  _739
REMARK  304  A    between atoms: _744  and  _746
REMARK  305  A    between atoms: _746  and  _747
REMARK  306  A    between atoms: _746  and  _749
REMARK  307  A    between atoms: _749  and  _750
REMARK  308  A    between atoms: _760  and  _762
REMARK  309  A    between atoms: _762  and  _763
REMARK  310  A    between atoms: _762  and  _765
REMARK  311  A    between atoms: _765  and  _766
REMARK  312  A    between atoms: _766  and  _767
REMARK  313  A    between atoms: _770  and  _772
REMARK  314  A    between atoms: _772  and  _773
REMARK  315  A    between atoms: _772  and  _775
REMARK  316  A    between atoms: _775  and  _776
REMARK  317  A    between atoms: _779  and  _781
REMARK  318  A    between atoms: _781  and  _782
REMARK  319  A    between atoms: _781  and  _784
REMARK  320  A    between atoms: _784  and  _785
REMARK  321  A    between atoms: _790  and  _792
REMARK  322  A    between atoms: _792  and  _793
REMARK  323  A    between atoms: _792  and  _795
REMARK  324  A    between atoms: _795  and  _796
REMARK  325  A    between atoms: _802  and  _804
REMARK  326  A    between atoms: _804  and  _805
REMARK  327  A    between atoms: _804  and  _807
REMARK  328  A    between atoms: _807  and  _808
REMARK  329  A    between atoms: _810  and  _812
REMARK  330  A    between atoms: _812  and  _813
REMARK  331  A    between atoms: _815  and  _817
REMARK  332  A    between atoms: _817  and  _818
REMARK  333  A    between atoms: _817  and  _820
REMARK  334  A    between atoms: _820  and  _821
REMARK  335  A    between atoms: _826  and  _827
REMARK  336  A    between atoms: _829  and  _831
REMARK  337  A    between atoms: _831  and  _832
REMARK  338  A    between atoms: _831  and  _834
REMARK  339  A    between atoms: _834  and  _835
REMARK  340  A    between atoms: _840  and  _841
REMARK  341  A    between atoms: _843  and  _845
REMARK  342  A    between atoms: _845  and  _846
REMARK  343  A    between atoms: _845  and  _848
REMARK  344  A    between atoms: _848  and  _849
REMARK  345  A    between atoms: _853  and  ZN_1037
REMARK  346  A    between atoms: _854  and  _856
REMARK  347  A    between atoms: _856  and  _857
REMARK  348  A    between atoms: _856  and  _859
REMARK  349  A    between atoms: _859  and  _860
REMARK  350  A    between atoms: _860  and  _861
REMARK  351  A    between atoms: _864  and  _866
REMARK  352  A    between atoms: _866  and  _867
REMARK  353  A    between atoms: _866  and  _869
REMARK  354  A    between atoms: _869  and  _870
REMARK  355  A    between atoms: _870  and  _871
REMARK  356  A    between atoms: _871  and  _872
REMARK  357  A    between atoms: _881  and  _883
REMARK  358  A    between atoms: _883  and  _884
REMARK  359  A    between atoms: _883  and  _886
REMARK  360  A    between atoms: _886  and  _887
REMARK  361  A    between atoms: _887  and  _888
REMARK  362  A    between atoms: _888  and  _889
REMARK  363  A    between atoms: _889  and  _890
REMARK  364  A    between atoms: _894  and  _896
REMARK  365  A    between atoms: _896  and  _897
REMARK  366  A    between atoms: _896  and  _899
REMARK  367  A    between atoms: _899  and  _900
REMARK  368  A    between atoms: _905  and  _906
REMARK  369  A    between atoms: _908  and  _910
REMARK  370  A    between atoms: _910  and  _911
REMARK  371  A    between atoms: _910  and  _913
REMARK  372  A    between atoms: _913  and  _914
REMARK  373  A    between atoms: _914  and  _915
REMARK  374  A    between atoms: _915  and  _916
REMARK  375  A    between atoms: _916  and  _917
REMARK  376  A    between atoms: _921  and  _923
REMARK  377  A    between atoms: _923  and  _924
REMARK  378  A    between atoms: _923  and  _926
REMARK  379  A    between atoms: _926  and  _927
REMARK  380  A    between atoms: _932  and  _933
REMARK  381  A    between atoms: _935  and  _937
REMARK  382  A    between atoms: _937  and  _938
REMARK  383  A    between atoms: _937  and  _940
REMARK  384  A    between atoms: _940  and  _941
REMARK  385  A    between atoms: _946  and  _947
REMARK  386  A    between atoms: _949  and  _951
REMARK  387  A    between atoms: _951  and  _952
REMARK  388  A    between atoms: _956  and  _957
REMARK  389  A    between atoms: _962  and  _964
REMARK  390  A    between atoms: _964  and  _965
REMARK  391  A    between atoms: _964  and  _967
REMARK  392  A    between atoms: _967  and  _968
REMARK  393  A    between atoms: _970  and  _972
REMARK  394  A    between atoms: _972  and  _973
REMARK  395  A    between atoms: _972  and  _975
REMARK  396  A    between atoms: _975  and  _976
REMARK  397  A    between atoms: _981  and  _983
REMARK  398  A    between atoms: _983  and  _984
REMARK  399  A    between atoms: _983  and  _986
REMARK  400  A    between atoms: _986  and  _987
REMARK  401  A    between atoms: _987  and  _988
REMARK  402  A    between atoms: _988  and  _989
REMARK  403  A    between atoms: _989  and  _990
REMARK  404  A    between atoms: _994  and  _996
REMARK  405  A    between atoms: _996  and  _997
REMARK  406  A    between atoms: _996  and  _999
REMARK  407  A    between atoms: _999  and  _1000
REMARK  408  A    between atoms: _1005  and  _1006
REMARK  409  A    between atoms: _1008  and  _1010
REMARK  410  A    between atoms: _1010  and  _1011
REMARK  411  A    between atoms: _1014  and  _1016
REMARK  412  A    between atoms: _1016  and  _1017
REMARK  413  A    between atoms: _1019  and  _1021
REMARK  414  A    between atoms: _1021  and  _1022
REMARK  415  A    between atoms: _1021  and  _1024
REMARK  416  A    between atoms: _1024  and  _1025
REMARK  417  A    between atoms: _1025  and  _1026
REMARK  418  A    between atoms: _1029  and  _1031
REMARK  419  A    between atoms: _1031  and  _1032
REMARK  420  A    between atoms: _1031  and  _1034
REMARK  421  A    between atoms: _1034  and  _1035
REMARK                            x       y       z     vdW  Elec       q    Type
REMARK                         _______ _______ _______ _____ _____    ______ ____
ROOT
ATOM      1  O   HOH     1      13.564  44.636  49.828  0.00  0.00    +0.000 OA
ENDROOT
TORSDOF 0
REMARK  Name = ../refined-set-2016/2xef/2xef_pocket.pdb
REMARK  421 active torsions:
REMARK  status: ('A' for Active; 'I' for Inactive)
REMARK    1  A    between atoms: _1  and  _3
REMARK    2  A    between atoms: _3  and  _4
REMARK    3  A    between atoms: _7  and  _9
REMARK    4  A    between atoms: _9  and  _10
REMARK    5  A    between atoms: _9  and  _12
REMARK    6  A    between atoms: _12  and  _13
REMARK    7  A    between atoms: _19  and  _21
REMARK    8  A    between atoms: _21  and  _22
REMARK    9  A    between atoms: _21  and  _24
REMARK   10  A    between atoms: _24  and  _25
REMARK   11  A    between atoms: _30  and  _31
REMARK   12  A    between atoms: _33  and  _35
REMARK   13  A    between atoms: _35  and  _36
REMARK   14  A    between atoms: _38  and  _40
REMARK   15  A    between atoms: _40  and  _41
REMARK   16  A    between atoms: _40  and  _43
REMARK   17  A    between atoms: _43  and  _44
REMARK   18  A    between atoms: _44  and  _45
REMARK   19  A    between atoms: _45  and  _46
REMARK   20  A    between atoms: _46  and  _47
REMARK   21  A    between atoms: _51  and  _53
REMARK   22  A    between atoms: _53  and  _54
REMARK   23  A    between atoms: _53  and  _56
REMARK   24  A    between atoms: _59  and  _61
REMARK   25  A    between atoms: _61  and  _62
REMARK   26  A    between atoms: _61  and  _64
REMARK   27  A    between atoms: _64  and  _65
REMARK   28  A    between atoms: _71  and  _73
REMARK   29  A    between atoms: _73  and  _74
REMARK   30  A    between atoms: _73  and  _76
REMARK   31  A    between atoms: _76  and  _77
REMARK   32  A    between atoms: _77  and  _78
REMARK   33  A    between atoms: _78  and  _79
REMARK   34  A    between atoms: _88  and  _90
REMARK   35  A    between atoms: _90  and  _91
REMARK   36  A    between atoms: _93  and  _95
REMARK   37  A    between atoms: _95  and  _96
REMARK   38  A    between atoms: _95  and  _98
REMARK   39  A    between atoms: _98  and  _99
REMARK   40  A    between atoms: _99  and  _100
REMARK   41  A    between atoms: _100  and  _101
REMARK   42  A    between atoms: _101  and  _102
REMARK   43  A    between atoms: _106  and  _108
REMARK   44  A    between atoms: _108  and  _109
REMARK   45  A    between atoms: _108  and  _111
REMARK   46  A    between atoms: _111  and  _112
REMARK   47  A    between atoms: _117  and  _118
REMARK   48  A    between atoms: _120  and  _122
REMARK   49  A    between atoms: _122  and  _123
REMARK   50  A    between atoms: _122  and  _125
REMARK   51  A    between atoms: _125  and  _126
REMARK   52  A    between atoms: _126  and  _127
REMARK   53  A    between atoms: _132  and  _134
REMARK   54  A    between atoms: _134  and  _135
REMARK   55  A    between atoms: _134  and  _137
REMARK   56  A    between atoms: _137  and  _138
REMARK   57  A    between atoms: _138  and  _139
REMARK   58  A    between atoms: _139  and  _140
REMARK   59  A    between atoms: _149  and  _151
REMARK   60  A    between atoms: _151  and  _152
REMARK   61  A    between atoms: _154  and  _156
REMARK   62  A    between atoms: _156  and  _157
REMARK   63  A    between atoms: _156  and  _159
REMARK   64  A    between atoms: _159  and  _160
REMARK   65  A    between atoms: _165  and  _167
REMARK   66  A    between atoms: _167  and  _168
REMARK   67  A    between atoms: _167  and  _170
REMARK   68  A    between atoms: _170  and  _171
REMARK   69  A    between atoms: _174  and  _176
REMARK   70  A    between atoms: _176  and  _177
REMARK   71  A    between atoms: _176  and  _179
REMARK   72  A    between atoms: _179  and  _180
REMARK   73  A    between atoms: _183  and  _185
REMARK   74  A    between atoms: _185  and  _186
REMARK   75  A    between atoms: _185  and  _188
REMARK   76  A    between atoms: _188  and  _189
REMARK   77  A    between atoms: _194  and  _196
REMARK   78  A    between atoms: _196  and  _197
REMARK   79  A    between atoms: _196  and  _199
REMARK   80  A    between atoms: _199  and  _200
REMARK   81  A    between atoms: _203  and  _205
REMARK   82  A    between atoms: _205  and  _206
REMARK   83  A    between atoms: _205  and  _208
REMARK   84  A    between atoms: _208  and  _209
REMARK   85  A    between atoms: _214  and  _216
REMARK   86  A    between atoms: _216  and  _217
REMARK   87  A    between atoms: _219  and  _221
REMARK   88  A    between atoms: _221  and  _222
REMARK   89  A    between atoms: _224  and  _226
REMARK   90  A    between atoms: _226  and  _227
REMARK   91  A    between atoms: _226  and  _229
REMARK   92  A    between atoms: _229  and  _230
REMARK   93  A    between atoms: _234  and  ZN_1038
REMARK   94  A    between atoms: _235  and  _237
REMARK   95  A    between atoms: _237  and  _238
REMARK   96  A    between atoms: _237  and  _240
REMARK   97  A    between atoms: _240  and  _241
REMARK   98  A    between atoms: _244  and  _246
REMARK   99  A    between atoms: _246  and  _247
REMARK  100  A    between atoms: _246  and  _249
REMARK  101  A    between atoms: _249  and  _250
REMARK  102  A    between atoms: _260  and  _262
REMARK  103  A    between atoms: _262  and  _263
REMARK  104  A    between atoms: _262  and  _265
REMARK  105  A    between atoms: _265  and  _266
REMARK  106  A    between atoms: _269  and  _271
REMARK  107  A    between atoms: _271  and  _272
REMARK  108  A    between atoms: _271  and  _274
REMARK  109  A    between atoms: _274  and  _275
REMARK  110  A    between atoms: _279  and  _280
REMARK  111  A    between atoms: _285  and  _287
REMARK  112  A    between atoms: _287  and  _288
REMARK  113  A    between atoms: _291  and  _293
REMARK  114  A    between atoms: _293  and  _294
REMARK  115  A    between atoms: _293  and  _296
REMARK  116  A    between atoms: _296  and  _297
REMARK  117  A    between atoms: _297  and  _298
REMARK  118  A    between atoms: _301  and  _303
REMARK  119  A    between atoms: _303  and  _304
REMARK  120  A    between atoms: _303  and  _306
REMARK  121  A    between atoms: _306  and  _307
REMARK  122  A    between atoms: _307  and  _308
REMARK  123  A    between atoms: _308  and  _310
REMARK  124  A    between atoms: _310  and  ZN_1037
REMARK  125  A    between atoms: _311  and  _313
REMARK  126  A    between atoms: _313  and  _314
REMARK  127  A    between atoms: _313  and  _316
REMARK  128  A    between atoms: _316  and  _317
REMARK  129  A    between atoms: _323  and  _325
REMARK  130  A    between atoms: _325  and  _326
REMARK  131  A    between atoms: _328  and  _330
REMARK  132  A    between atoms: _330  and  _331
REMARK  133  A    between atoms: _330  and  _333
REMARK  134  A    between atoms: _333  and  _334
REMARK  135  A    between atoms: _337  and  _339
REMARK  136  A    between atoms: _339  and  _340
REMARK  137  A    between atoms: _339  and  _342
REMARK  138  A    between atoms: _342  and  _343
REMARK  139  A    between atoms: _346  and  _348
REMARK  140  A    between atoms: _348  and  _349
REMARK  141  A    between atoms: _348  and  _351
REMARK  142  A    between atoms: _351  and  _352
REMARK  143  A    between atoms: _357  and  _359
REMARK  144  A    between atoms: _359  and  _360
REMARK  145  A    between atoms: _359  and  _362
REMARK  146  A    between atoms: _362  and  _363
REMARK  147  A    between atoms: _363  and  _365
REMARK  148  A    between atoms: _365  and  ZN_1038
REMARK  149  A    between atoms: _366  and  _368
REMARK  150  A    between atoms: _368  and  _369
REMARK  151  A    between atoms: _368  and  _371
REMARK  152  A    between atoms: _371  and  _372
REMARK  153  A    between atoms: _374  and  _376
REMARK  154  A    between atoms: _376  and  _377
REMARK  155  A    between atoms: _376  and  _379
REMARK  156  A    between atoms: _379  and  _380
REMARK  157  A    between atoms: _382  and  _384
REMARK  158  A    between atoms: _384  and  _385
REMARK  159  A    between atoms: _384  and  _387
REMARK  160  A    between atoms: _387  and  _388
REMARK  161  A    between atoms: _391  and  _393
REMARK  162  A    between atoms: _393  and  _394
REMARK  163  A    between atoms: _393  and  _396
REMARK  164  A    between atoms: _396  and  _397
REMARK  165  A    between atoms: _397  and  _398
REMARK  166  A    between atoms: _401  and  _403
REMARK  167  A    between atoms: _403  and  _404
REMARK  168  A    between atoms: _403  and  _406
REMARK  169  A    between atoms: _406  and  _407
REMARK  170  A    between atoms: _412  and  _413
REMARK  171  A    between atoms: _415  and  _417
REMARK  172  A    between atoms: _417  and  _418
REMARK  173  A    between atoms: _417  and  _420
REMARK  174  A    between atoms: _420  and  _421
REMARK  175  A    between atoms: _424  and  _426
REMARK  176  A    between atoms: _426  and  _427
REMARK  177  A    between atoms: _426  and  _429
REMARK  178  A    between atoms: _429  and  _430
REMARK  179  A    between atoms: _433  and  _435
REMARK  180  A    between atoms: _435  and  _436
REMARK  181  A    between atoms: _435  and  _438
REMARK  182  A    between atoms: _438  and  _439
REMARK  183  A    between atoms: _439  and  _440
REMARK  184  A    between atoms: _440  and  _441
REMARK  185  A    between atoms: _450  and  _452
REMARK  186  A    between atoms: _452  and  _453
REMARK  187  A    between atoms: _452  and  _455
REMARK  188  A    between atoms: _458  and  _460
REMARK  189  A    between atoms: _460  and  _461
REMARK  190  A    between atoms: _460  and  _463
REMARK  191  A    between atoms: _463  and  _464
REMARK  192  A    between atoms: _467  and  _469
REMARK  193  A    between atoms: _469  and  _470
REMARK  194  A    between atoms: _469  and  _472
REMARK  195  A    between atoms: _474  and  _476
REMARK  196  A    between atoms: _476  and  _477
REMARK  197  A    between atoms: _476  and  _479
REMARK  198  A    between atoms: _479  and  _480
REMARK  199  A    between atoms: _490  and  _492
REMARK  200  A    between atoms: _492  and  _493
REMARK  201  A    between atoms: _492  and  _495
REMARK  202  A    between atoms: _495  and  _496
REMARK  203  A    between atoms: _496  and  _497
REMARK  204  A    between atoms: _497  and  _498
REMARK  205  A    between atoms: _498  and  _499
REMARK  206  A    between atoms: _503  and  _505
REMARK  207  A    between atoms: _505  and  _506
REMARK  208  A    between atoms: _505  and  _508
REMARK  209  A    between atoms: _508  and  _509
REMARK  210  A    between atoms: _512  and  _513
REMARK  211  A    between atoms: _519  and  _520
REMARK  212  A    between atoms: _525  and  _527
REMARK  213  A    between atoms: _527  and  _528
REMARK  214  A    between atoms: _527  and  _530
REMARK  215  A    between atoms: _530  and  _531
REMARK  216  A    between atoms: _531  and  _532
REMARK  217  A    between atoms: _535  and  _537
REMARK  218  A    between atoms: _537  and  _538
REMARK  219  A    between atoms: _537  and  _540
REMARK  220  A    between atoms: _540  and  _541
REMARK  221  A    between atoms: _541  and  _542
REMARK  222  A    between atoms: _542  and  _543
REMARK  223  A    between atoms: _552  and  _554
REMARK  224  A    between atoms: _554  and  _555
REMARK  225  A    between atoms: _554  and  _557
REMARK  226  A    between atoms: _557  and  _558
REMARK  227  A    between atoms: _561  and  _563
REMARK  228  A    between atoms: _563  and  _564
REMARK  229  A    between atoms: _563  and  _566
REMARK  230  A    between atoms: _566  and  _567
REMARK  231  A    between atoms: _569  and  _571
REMARK  232  A    between atoms: _571  and  _572
REMARK  233  A    between atoms: _571  and  _574
REMARK  234  A    between atoms: _574  and  _575
REMARK  235  A    between atoms: _575  and  _576
REMARK  236  A    between atoms: _576  and  _577
REMARK  237  A    between atoms: _577  and  _578
REMARK  238  A    between atoms: _582  and  _584
REMARK  239  A    between atoms: _584  and  _585
REMARK  240  A    between atoms: _584  and  _587
REMARK  241  A    between atoms: _587  and  _588
REMARK  242  A    between atoms: _591  and  _593
REMARK  243  A    between atoms: _593  and  _594
REMARK  244  A    between atoms: _596  and  _598
REMARK  245  A    between atoms: _598  and  _599
REMARK  246  A    between atoms: _598  and  _601
REMARK  247  A    between atoms: _601  and  _602
REMARK  248  A    between atoms: _604  and  _606
REMARK  249  A    between atoms: _606  and  _607
REMARK  250  A    between atoms: _609  and  _611
REMARK  251  A    between atoms: _611  and  _612
REMARK  252  A    between atoms: _611  and  _614
REMARK  253  A    between atoms: _614  and  _615
REMARK  254  A    between atoms: _620  and  _622
REMARK  255  A    between atoms: _622  and  _623
REMARK  256  A    between atoms: _622  and  _625
REMARK  257  A    between atoms: _625  and  _626
REMARK  258  A    between atoms: _629  and  _631
REMARK  259  A    between atoms: _631  and  _632
REMARK  260  A    between atoms: _631  and  _634
REMARK  261  A    between atoms: _634  and  _635
REMARK  262  A    between atoms: _641  and  _643
REMARK  263  A    between atoms: _643  and  _644
REMARK  264  A    between atoms: _643  and  _646
REMARK  265  A    between atoms: _646  and  _647
REMARK  266  A    between atoms: _647  and  _648
REMARK  267  A    between atoms: _651  and  _653
REMARK  268  A    between atoms: _653  and  _654
REMARK  269  A    between atoms: _653  and  _656
REMARK  270  A    between atoms: _656  and  _657
REMARK  271  A    between atoms: _657  and  _658
REMARK  272  A    between atoms: _663  and  _665
REMARK  273  A    between atoms: _665  and  _666
REMARK  274  A    between atoms: _665  and  _668
REMARK  275  A    between atoms: _668  and  _669
REMARK  276  A    between atoms: _669  and  _670
REMARK  277  A    between atoms: _670  and  _671
REMARK  278  A    between atoms: _680  and  _682
REMARK  279  A    between atoms: _682  and  _683
REMARK  280  A    between atoms: _682  and  _685
REMARK  281  A    between atoms: _685  and  _686
REMARK  282  A    between atoms: _686  and  _687
REMARK  283  A    between atoms: _687  and  _688
REMARK  284  A    between atoms: _697  and  _699
REMARK  285  A    between atoms: _699  and  _700
REMARK  286  A    between atoms: _699  and  _702
REMARK  287  A    between atoms: _702  and  _703
REMARK  288  A    between atoms: _708  and  _709
REMARK  289  A    between atoms: _711  and  _713
REMARK  290  A    between atoms: _713  and  _714
REMARK  291  A    between atoms: _713  and  _716
REMARK  292  A    between atoms: _716  and  _717
REMARK  293  A    between atoms: _720  and  _722
REMARK  294  A    between atoms: _722  and  _723
REMARK  295  A    between atoms: _722  and  _725
REMARK  296  A    between atoms: _725  and  _726
REMARK  297  A    between atoms: _726  and  _727
REMARK  298  A    between atoms: _727  and  _728
REMARK  299  A    between atoms: _728  and  _729
REMARK  300  A    between atoms: _733  and  _735
REMARK  301  A    between atoms: _735  and  _736
REMARK  302  A    between atoms: _735  and  _738
REMARK  303  A    between atoms: _738  and  _739
REMARK  304  A    between atoms: _744  and  _746
REMARK  305  A    between atoms: _746  and  _747
REMARK  306  A    between atoms: _746  and  _749
REMARK  307  A    between atoms: _749  and  _750
REMARK  308  A    between atoms: _760  and  _762
REMARK  309  A    between atoms: _762  and  _763
REMARK  310  A    between atoms: _762  and  _765
REMARK  311  A    between atoms: _765  and  _766
REMARK  312  A    between atoms: _766  and  _767
REMARK  313  A    between atoms: _770  and  _772
REMARK  314  A    between atoms: _772  and  _773
REMARK  315  A    between atoms: _772  and  _775
REMARK  316  A    between atoms: _775  and  _776
REMARK  317  A    between atoms: _779  and  _781
REMARK  318  A    between atoms: _781  and  _782
REMARK  319  A    between atoms: _781  and  _784
REMARK  320  A    between atoms: _784  and  _785
REMARK  321  A    between atoms: _790  and  _792
REMARK  322  A    between atoms: _792  and  _793
REMARK  323  A    between atoms: _792  and  _795
REMARK  324  A    between atoms: _795  and  _796
REMARK  325  A    between atoms: _802  and  _804
REMARK  326  A    between atoms: _804  and  _805
REMARK  327  A    between atoms: _804  and  _807
REMARK  328  A    between atoms: _807  and  _808
REMARK  329  A    between atoms: _810  and  _812
REMARK  330  A    between atoms: _812  and  _813
REMARK  331  A    between atoms: _815  and  _817
REMARK  332  A    between atoms: _817  and  _818
REMARK  333  A    between atoms: _817  and  _820
REMARK  334  A    between atoms: _820  and  _821
REMARK  335  A    between atoms: _826  and  _827
REMARK  336  A    between atoms: _829  and  _831
REMARK  337  A    between atoms: _831  and  _832
REMARK  338  A    between atoms: _831  and  _834
REMARK  339  A    between atoms: _834  and  _835
REMARK  340  A    between atoms: _840  and  _841
REMARK  341  A    between atoms: _843  and  _845
REMARK  342  A    between atoms: _845  and  _846
REMARK  343  A    between atoms: _845  and  _848
REMARK  344  A    between atoms: _848  and  _849
REMARK  345  A    between atoms: _853  and  ZN_1037
REMARK  346  A    between atoms: _854  and  _856
REMARK  347  A    between atoms: _856  and  _857
REMARK  348  A    between atoms: _856  and  _859
REMARK  349  A    between atoms: _859  and  _860
REMARK  350  A    between atoms: _860  and  _861
REMARK  351  A    between atoms: _864  and  _866
REMARK  352  A    between atoms: _866  and  _867
REMARK  353  A    between atoms: _866  and  _869
REMARK  354  A    between atoms: _869  and  _870
REMARK  355  A    between atoms: _870  and  _871
REMARK  356  A    between atoms: _871  and  _872
REMARK  357  A    between atoms: _881  and  _883
REMARK  358  A    between atoms: _883  and  _884
REMARK  359  A    between atoms: _883  and  _886
REMARK  360  A    between atoms: _886  and  _887
REMARK  361  A    between atoms: _887  and  _888
REMARK  362  A    between atoms: _888  and  _889
REMARK  363  A    between atoms: _889  and  _890
REMARK  364  A    between atoms: _894  and  _896
REMARK  365  A    between atoms: _896  and  _897
REMARK  366  A    between atoms: _896  and  _899
REMARK  367  A    between atoms: _899  and  _900
REMARK  368  A    between atoms: _905  and  _906
REMARK  369  A    between atoms: _908  and  _910
REMARK  370  A    between atoms: _910  and  _911
REMARK  371  A    between atoms: _910  and  _913
REMARK  372  A    between atoms: _913  and  _914
REMARK  373  A    between atoms: _914  and  _915
REMARK  374  A    between atoms: _915  and  _916
REMARK  375  A    between atoms: _916  and  _917
REMARK  376  A    between atoms: _921  and  _923
REMARK  377  A    between atoms: _923  and  _924
REMARK  378  A    between atoms: _923  and  _926
REMARK  379  A    between atoms: _926  and  _927
REMARK  380  A    between atoms: _932  and  _933
REMARK  381  A    between atoms: _935  and  _937
REMARK  382  A    between atoms: _937  and  _938
REMARK  383  A    between atoms: _937  and  _940
REMARK  384  A    between atoms: _940  and  _941
REMARK  385  A    between atoms: _946  and  _947
REMARK  386  A    between atoms: _949  and  _951
REMARK  387  A    between atoms: _951  and  _952
REMARK  388  A    between atoms: _956  and  _957
REMARK  389  A    between atoms: _962  and  _964
REMARK  390  A    between atoms: _964  and  _965
REMARK  391  A    between atoms: _964  and  _967
REMARK  392  A    between atoms: _967  and  _968
REMARK  393  A    between atoms: _970  and  _972
REMARK  394  A    between atoms: _972  and  _973
REMARK  395  A    between atoms: _972  and  _975
REMARK  396  A    between atoms: _975  and  _976
REMARK  397  A    between atoms: _981  and  _983
REMARK  398  A    between atoms: _983  and  _984
REMARK  399  A    between atoms: _983  and  _986
REMARK  400  A    between atoms: _986  and  _987
REMARK  401  A    between atoms: _987  and  _988
REMARK  402  A    between atoms: _988  and  _989
REMARK  403  A    between atoms: _989  and  _990
REMARK  404  A    between atoms: _994  and  _996
REMARK  405  A    between atoms: _996  and  _997
REMARK  406  A    between atoms: _996  and  _999
REMARK  407  A    between atoms: _999  and  _1000
REMARK  408  A    between atoms: _1005  and  _1006
REMARK  409  A    between atoms: _1008  and  _1010
REMARK  410  A    between atoms: _1010  and  _1011
REMARK  411  A    between atoms: _1014  and  _1016
REMARK  412  A    between atoms: _1016  and  _1017
REMARK  413  A    between atoms: _1019  and  _1021
REMARK  414  A    between atoms: _1021  and  _1022
REMARK  415  A    between atoms: _1021  and  _1024
REMARK  416  A    between atoms: _1024  and  _1025
REMARK  417  A    between atoms: _1025  and  _1026
REMARK  418  A    between atoms: _1029  and  _1031
REMARK  419  A    between atoms: _1031  and  _1032
REMARK  420  A    between atoms: _1031  and  _1034
REMARK  421  A    between atoms: _1034  and  _1035
REMARK                            x       y       z     vdW  Elec       q    Type
REMARK                         _______ _______ _______ _____ _____    ______ ____
ROOT
ATOM      1  O   HOH     1       8.062  51.811  43.031  0.00  0.00    +0.000 OA
ENDROOT
TORSDOF 0
REMARK  Name = ../refined-set-2016/2xef/2xef_pocket.pdb
REMARK  421 active torsions:
REMARK  status: ('A' for Active; 'I' for Inactive)
REMARK    1  A    between atoms: _1  and  _3
REMARK    2  A    between atoms: _3  and  _4
REMARK    3  A    between atoms: _7  and  _9
REMARK    4  A    between atoms: _9  and  _10
REMARK    5  A    between atoms: _9  and  _12
REMARK    6  A    between atoms: _12  and  _13
REMARK    7  A    between atoms: _19  and  _21
REMARK    8  A    between atoms: _21  and  _22
REMARK    9  A    between atoms: _21  and  _24
REMARK   10  A    between atoms: _24  and  _25
REMARK   11  A    between atoms: _30  and  _31
REMARK   12  A    between atoms: _33  and  _35
REMARK   13  A    between atoms: _35  and  _36
REMARK   14  A    between atoms: _38  and  _40
REMARK   15  A    between atoms: _40  and  _41
REMARK   16  A    between atoms: _40  and  _43
REMARK   17  A    between atoms: _43  and  _44
REMARK   18  A    between atoms: _44  and  _45
REMARK   19  A    between atoms: _45  and  _46
REMARK   20  A    between atoms: _46  and  _47
REMARK   21  A    between atoms: _51  and  _53
REMARK   22  A    between atoms: _53  and  _54
REMARK   23  A    between atoms: _53  and  _56
REMARK   24  A    between atoms: _59  and  _61
REMARK   25  A    between atoms: _61  and  _62
REMARK   26  A    between atoms: _61  and  _64
REMARK   27  A    between atoms: _64  and  _65
REMARK   28  A    between atoms: _71  and  _73
REMARK   29  A    between atoms: _73  and  _74
REMARK   30  A    between atoms: _73  and  _76
REMARK   31  A    between atoms: _76  and  _77
REMARK   32  A    between atoms: _77  and  _78
REMARK   33  A    between atoms: _78  and  _79
REMARK   34  A    between atoms: _88  and  _90
REMARK   35  A    between atoms: _90  and  _91
REMARK   36  A    between atoms: _93  and  _95
REMARK   37  A    between atoms: _95  and  _96
REMARK   38  A    between atoms: _95  and  _98
REMARK   39  A    between atoms: _98  and  _99
REMARK   40  A    between atoms: _99  and  _100
REMARK   41  A    between atoms: _100  and  _101
REMARK   42  A    between atoms: _101  and  _102
REMARK   43  A    between atoms: _106  and  _108
REMARK   44  A    between atoms: _108  and  _109
REMARK   45  A    between atoms: _108  and  _111
REMARK   46  A    between atoms: _111  and  _112
REMARK   47  A    between atoms: _117  and  _118
REMARK   48  A    between atoms: _120  and  _122
REMARK   49  A    between atoms: _122  and  _123
REMARK   50  A    between atoms: _122  and  _125
REMARK   51  A    between atoms: _125  and  _126
REMARK   52  A    between atoms: _126  and  _127
REMARK   53  A    between atoms: _132  and  _134
REMARK   54  A    between atoms: _134  and  _135
REMARK   55  A    between atoms: _134  and  _137
REMARK   56  A    between atoms: _137  and  _138
REMARK   57  A    between atoms: _138  and  _139
REMARK   58  A    between atoms: _139  and  _140
REMARK   59  A    between atoms: _149  and  _151
REMARK   60  A    between atoms: _151  and  _152
REMARK   61  A    between atoms: _154  and  _156
REMARK   62  A    between atoms: _156  and  _157
REMARK   63  A    between atoms: _156  and  _159
REMARK   64  A    between atoms: _159  and  _160
REMARK   65  A    between atoms: _165  and  _167
REMARK   66  A    between atoms: _167  and  _168
REMARK   67  A    between atoms: _167  and  _170
REMARK   68  A    between atoms: _170  and  _171
REMARK   69  A    between atoms: _174  and  _176
REMARK   70  A    between atoms: _176  and  _177
REMARK   71  A    between atoms: _176  and  _179
REMARK   72  A    between atoms: _179  and  _180
REMARK   73  A    between atoms: _183  and  _185
REMARK   74  A    between atoms: _185  and  _186
REMARK   75  A    between atoms: _185  and  _188
REMARK   76  A    between atoms: _188  and  _189
REMARK   77  A    between atoms: _194  and  _196
REMARK   78  A    between atoms: _196  and  _197
REMARK   79  A    between atoms: _196  and  _199
REMARK   80  A    between atoms: _199  and  _200
REMARK   81  A    between atoms: _203  and  _205
REMARK   82  A    between atoms: _205  and  _206
REMARK   83  A    between atoms: _205  and  _208
REMARK   84  A    between atoms: _208  and  _209
REMARK   85  A    between atoms: _214  and  _216
REMARK   86  A    between atoms: _216  and  _217
REMARK   87  A    between atoms: _219  and  _221
REMARK   88  A    between atoms: _221  and  _222
REMARK   89  A    between atoms: _224  and  _226
REMARK   90  A    between atoms: _226  and  _227
REMARK   91  A    between atoms: _226  and  _229
REMARK   92  A    between atoms: _229  and  _230
REMARK   93  A    between atoms: _234  and  ZN_1038
REMARK   94  A    between atoms: _235  and  _237
REMARK   95  A    between atoms: _237  and  _238
REMARK   96  A    between atoms: _237  and  _240
REMARK   97  A    between atoms: _240  and  _241
REMARK   98  A    between atoms: _244  and  _246
REMARK   99  A    between atoms: _246  and  _247
REMARK  100  A    between atoms: _246  and  _249
REMARK  101  A    between atoms: _249  and  _250
REMARK  102  A    between atoms: _260  and  _262
REMARK  103  A    between atoms: _262  and  _263
REMARK  104  A    between atoms: _262  and  _265
REMARK  105  A    between atoms: _265  and  _266
REMARK  106  A    between atoms: _269  and  _271
REMARK  107  A    between atoms: _271  and  _272
REMARK  108  A    between atoms: _271  and  _274
REMARK  109  A    between atoms: _274  and  _275
REMARK  110  A    between atoms: _279  and  _280
REMARK  111  A    between atoms: _285  and  _287
REMARK  112  A    between atoms: _287  and  _288
REMARK  113  A    between atoms: _291  and  _293
REMARK  114  A    between atoms: _293  and  _294
REMARK  115  A    between atoms: _293  and  _296
REMARK  116  A    between atoms: _296  and  _297
REMARK  117  A    between atoms: _297  and  _298
REMARK  118  A    between atoms: _301  and  _303
REMARK  119  A    between atoms: _303  and  _304
REMARK  120  A    between atoms: _303  and  _306
REMARK  121  A    between atoms: _306  and  _307
REMARK  122  A    between atoms: _307  and  _308
REMARK  123  A    between atoms: _308  and  _310
REMARK  124  A    between atoms: _310  and  ZN_1037
REMARK  125  A    between atoms: _311  and  _313
REMARK  126  A    between atoms: _313  and  _314
REMARK  127  A    between atoms: _313  and  _316
REMARK  128  A    between atoms: _316  and  _317
REMARK  129  A    between atoms: _323  and  _325
REMARK  130  A    between atoms: _325  and  _326
REMARK  131  A    between atoms: _328  and  _330
REMARK  132  A    between atoms: _330  and  _331
REMARK  133  A    between atoms: _330  and  _333
REMARK  134  A    between atoms: _333  and  _334
REMARK  135  A    between atoms: _337  and  _339
REMARK  136  A    between atoms: _339  and  _340
REMARK  137  A    between atoms: _339  and  _342
REMARK  138  A    between atoms: _342  and  _343
REMARK  139  A    between atoms: _346  and  _348
REMARK  140  A    between atoms: _348  and  _349
REMARK  141  A    between atoms: _348  and  _351
REMARK  142  A    between atoms: _351  and  _352
REMARK  143  A    between atoms: _357  and  _359
REMARK  144  A    between atoms: _359  and  _360
REMARK  145  A    between atoms: _359  and  _362
REMARK  146  A    between atoms: _362  and  _363
REMARK  147  A    between atoms: _363  and  _365
REMARK  148  A    between atoms: _365  and  ZN_1038
REMARK  149  A    between atoms: _366  and  _368
REMARK  150  A    between atoms: _368  and  _369
REMARK  151  A    between atoms: _368  and  _371
REMARK  152  A    between atoms: _371  and  _372
REMARK  153  A    between atoms: _374  and  _376
REMARK  154  A    between atoms: _376  and  _377
REMARK  155  A    between atoms: _376  and  _379
REMARK  156  A    between atoms: _379  and  _380
REMARK  157  A    between atoms: _382  and  _384
REMARK  158  A    between atoms: _384  and  _385
REMARK  159  A    between atoms: _384  and  _387
REMARK  160  A    between atoms: _387  and  _388
REMARK  161  A    between atoms: _391  and  _393
REMARK  162  A    between atoms: _393  and  _394
REMARK  163  A    between atoms: _393  and  _396
REMARK  164  A    between atoms: _396  and  _397
REMARK  165  A    between atoms: _397  and  _398
REMARK  166  A    between atoms: _401  and  _403
REMARK  167  A    between atoms: _403  and  _404
REMARK  168  A    between atoms: _403  and  _406
REMARK  169  A    between atoms: _406  and  _407
REMARK  170  A    between atoms: _412  and  _413
REMARK  171  A    between atoms: _415  and  _417
REMARK  172  A    between atoms: _417  and  _418
REMARK  173  A    between atoms: _417  and  _420
REMARK  174  A    between atoms: _420  and  _421
REMARK  175  A    between atoms: _424  and  _426
REMARK  176  A    between atoms: _426  and  _427
REMARK  177  A    between atoms: _426  and  _429
REMARK  178  A    between atoms: _429  and  _430
REMARK  179  A    between atoms: _433  and  _435
REMARK  180  A    between atoms: _435  and  _436
REMARK  181  A    between atoms: _435  and  _438
REMARK  182  A    between atoms: _438  and  _439
REMARK  183  A    between atoms: _439  and  _440
REMARK  184  A    between atoms: _440  and  _441
REMARK  185  A    between atoms: _450  and  _452
REMARK  186  A    between atoms: _452  and  _453
REMARK  187  A    between atoms: _452  and  _455
REMARK  188  A    between atoms: _458  and  _460
REMARK  189  A    between atoms: _460  and  _461
REMARK  190  A    between atoms: _460  and  _463
REMARK  191  A    between atoms: _463  and  _464
REMARK  192  A    between atoms: _467  and  _469
REMARK  193  A    between atoms: _469  and  _470
REMARK  194  A    between atoms: _469  and  _472
REMARK  195  A    between atoms: _474  and  _476
REMARK  196  A    between atoms: _476  and  _477
REMARK  197  A    between atoms: _476  and  _479
REMARK  198  A    between atoms: _479  and  _480
REMARK  199  A    between atoms: _490  and  _492
REMARK  200  A    between atoms: _492  and  _493
REMARK  201  A    between atoms: _492  and  _495
REMARK  202  A    between atoms: _495  and  _496
REMARK  203  A    between atoms: _496  and  _497
REMARK  204  A    between atoms: _497  and  _498
REMARK  205  A    between atoms: _498  and  _499
REMARK  206  A    between atoms: _503  and  _505
REMARK  207  A    between atoms: _505  and  _506
REMARK  208  A    between atoms: _505  and  _508
REMARK  209  A    between atoms: _508  and  _509
REMARK  210  A    between atoms: _512  and  _513
REMARK  211  A    between atoms: _519  and  _520
REMARK  212  A    between atoms: _525  and  _527
REMARK  213  A    between atoms: _527  and  _528
REMARK  214  A    between atoms: _527  and  _530
REMARK  215  A    between atoms: _530  and  _531
REMARK  216  A    between atoms: _531  and  _532
REMARK  217  A    between atoms: _535  and  _537
REMARK  218  A    between atoms: _537  and  _538
REMARK  219  A    between atoms: _537  and  _540
REMARK  220  A    between atoms: _540  and  _541
REMARK  221  A    between atoms: _541  and  _542
REMARK  222  A    between atoms: _542  and  _543
REMARK  223  A    between atoms: _552  and  _554
REMARK  224  A    between atoms: _554  and  _555
REMARK  225  A    between atoms: _554  and  _557
REMARK  226  A    between atoms: _557  and  _558
REMARK  227  A    between atoms: _561  and  _563
REMARK  228  A    between atoms: _563  and  _564
REMARK  229  A    between atoms: _563  and  _566
REMARK  230  A    between atoms: _566  and  _567
REMARK  231  A    between atoms: _569  and  _571
REMARK  232  A    between atoms: _571  and  _572
REMARK  233  A    between atoms: _571  and  _574
REMARK  234  A    between atoms: _574  and  _575
REMARK  235  A    between atoms: _575  and  _576
REMARK  236  A    between atoms: _576  and  _577
REMARK  237  A    between atoms: _577  and  _578
REMARK  238  A    between atoms: _582  and  _584
REMARK  239  A    between atoms: _584  and  _585
REMARK  240  A    between atoms: _584  and  _587
REMARK  241  A    between atoms: _587  and  _588
REMARK  242  A    between atoms: _591  and  _593
REMARK  243  A    between atoms: _593  and  _594
REMARK  244  A    between atoms: _596  and  _598
REMARK  245  A    between atoms: _598  and  _599
REMARK  246  A    between atoms: _598  and  _601
REMARK  247  A    between atoms: _601  and  _602
REMARK  248  A    between atoms: _604  and  _606
REMARK  249  A    between atoms: _606  and  _607
REMARK  250  A    between atoms: _609  and  _611
REMARK  251  A    between atoms: _611  and  _612
REMARK  252  A    between atoms: _611  and  _614
REMARK  253  A    between atoms: _614  and  _615
REMARK  254  A    between atoms: _620  and  _622
REMARK  255  A    between atoms: _622  and  _623
REMARK  256  A    between atoms: _622  and  _625
REMARK  257  A    between atoms: _625  and  _626
REMARK  258  A    between atoms: _629  and  _631
REMARK  259  A    between atoms: _631  and  _632
REMARK  260  A    between atoms: _631  and  _634
REMARK  261  A    between atoms: _634  and  _635
REMARK  262  A    between atoms: _641  and  _643
REMARK  263  A    between atoms: _643  and  _644
REMARK  264  A    between atoms: _643  and  _646
REMARK  265  A    between atoms: _646  and  _647
REMARK  266  A    between atoms: _647  and  _648
REMARK  267  A    between atoms: _651  and  _653
REMARK  268  A    between atoms: _653  and  _654
REMARK  269  A    between atoms: _653  and  _656
REMARK  270  A    between atoms: _656  and  _657
REMARK  271  A    between atoms: _657  and  _658
REMARK  272  A    between atoms: _663  and  _665
REMARK  273  A    between atoms: _665  and  _666
REMARK  274  A    between atoms: _665  and  _668
REMARK  275  A    between atoms: _668  and  _669
REMARK  276  A    between atoms: _669  and  _670
REMARK  277  A    between atoms: _670  and  _671
REMARK  278  A    between atoms: _680  and  _682
REMARK  279  A    between atoms: _682  and  _683
REMARK  280  A    between atoms: _682  and  _685
REMARK  281  A    between atoms: _685  and  _686
REMARK  282  A    between atoms: _686  and  _687
REMARK  283  A    between atoms: _687  and  _688
REMARK  284  A    between atoms: _697  and  _699
REMARK  285  A    between atoms: _699  and  _700
REMARK  286  A    between atoms: _699  and  _702
REMARK  287  A    between atoms: _702  and  _703
REMARK  288  A    between atoms: _708  and  _709
REMARK  289  A    between atoms: _711  and  _713
REMARK  290  A    between atoms: _713  and  _714
REMARK  291  A    between atoms: _713  and  _716
REMARK  292  A    between atoms: _716  and  _717
REMARK  293  A    between atoms: _720  and  _722
REMARK  294  A    between atoms: _722  and  _723
REMARK  295  A    between atoms: _722  and  _725
REMARK  296  A    between atoms: _725  and  _726
REMARK  297  A    between atoms: _726  and  _727
REMARK  298  A    between atoms: _727  and  _728
REMARK  299  A    between atoms: _728  and  _729
REMARK  300  A    between atoms: _733  and  _735
REMARK  301  A    between atoms: _735  and  _736
REMARK  302  A    between atoms: _735  and  _738
REMARK  303  A    between atoms: _738  and  _739
REMARK  304  A    between atoms: _744  and  _746
REMARK  305  A    between atoms: _746  and  _747
REMARK  306  A    between atoms: _746  and  _749
REMARK  307  A    between atoms: _749  and  _750
REMARK  308  A    between atoms: _760  and  _762
REMARK  309  A    between atoms: _762  and  _763
REMARK  310  A    between atoms: _762  and  _765
REMARK  311  A    between atoms: _765  and  _766
REMARK  312  A    between atoms: _766  and  _767
REMARK  313  A    between atoms: _770  and  _772
REMARK  314  A    between atoms: _772  and  _773
REMARK  315  A    between atoms: _772  and  _775
REMARK  316  A    between atoms: _775  and  _776
REMARK  317  A    between atoms: _779  and  _781
REMARK  318  A    between atoms: _781  and  _782
REMARK  319  A    between atoms: _781  and  _784
REMARK  320  A    between atoms: _784  and  _785
REMARK  321  A    between atoms: _790  and  _792
REMARK  322  A    between atoms: _792  and  _793
REMARK  323  A    between atoms: _792  and  _795
REMARK  324  A    between atoms: _795  and  _796
REMARK  325  A    between atoms: _802  and  _804
REMARK  326  A    between atoms: _804  and  _805
REMARK  327  A    between atoms: _804  and  _807
REMARK  328  A    between atoms: _807  and  _808
REMARK  329  A    between atoms: _810  and  _812
REMARK  330  A    between atoms: _812  and  _813
REMARK  331  A    between atoms: _815  and  _817
REMARK  332  A    between atoms: _817  and  _818
REMARK  333  A    between atoms: _817  and  _820
REMARK  334  A    between atoms: _820  and  _821
REMARK  335  A    between atoms: _826  and  _827
REMARK  336  A    between atoms: _829  and  _831
REMARK  337  A    between atoms: _831  and  _832
REMARK  338  A    between atoms: _831  and  _834
REMARK  339  A    between atoms: _834  and  _835
REMARK  340  A    between atoms: _840  and  _841
REMARK  341  A    between atoms: _843  and  _845
REMARK  342  A    between atoms: _845  and  _846
REMARK  343  A    between atoms: _845  and  _848
REMARK  344  A    between atoms: _848  and  _849
REMARK  345  A    between atoms: _853  and  ZN_1037
REMARK  346  A    between atoms: _854  and  _856
REMARK  347  A    between atoms: _856  and  _857
REMARK  348  A    between atoms: _856  and  _859
REMARK  349  A    between atoms: _859  and  _860
REMARK  350  A    between atoms: _860  and  _861
REMARK  351  A    between atoms: _864  and  _866
REMARK  352  A    between atoms: _866  and  _867
REMARK  353  A    between atoms: _866  and  _869
REMARK  354  A    between atoms: _869  and  _870
REMARK  355  A    between atoms: _870  and  _871
REMARK  356  A    between atoms: _871  and  _872
REMARK  357  A    between atoms: _881  and  _883
REMARK  358  A    between atoms: _883  and  _884
REMARK  359  A    between atoms: _883  and  _886
REMARK  360  A    between atoms: _886  and  _887
REMARK  361  A    between atoms: _887  and  _888
REMARK  362  A    between atoms: _888  and  _889
REMARK  363  A    between atoms: _889  and  _890
REMARK  364  A    between atoms: _894  and  _896
REMARK  365  A    between atoms: _896  and  _897
REMARK  366  A    between atoms: _896  and  _899
REMARK  367  A    between atoms: _899  and  _900
REMARK  368  A    between atoms: _905  and  _906
REMARK  369  A    between atoms: _908  and  _910
REMARK  370  A    between atoms: _910  and  _911
REMARK  371  A    between atoms: _910  and  _913
REMARK  372  A    between atoms: _913  and  _914
REMARK  373  A    between atoms: _914  and  _915
REMARK  374  A    between atoms: _915  and  _916
REMARK  375  A    between atoms: _916  and  _917
REMARK  376  A    between atoms: _921  and  _923
REMARK  377  A    between atoms: _923  and  _924
REMARK  378  A    between atoms: _923  and  _926
REMARK  379  A    between atoms: _926  and  _927
REMARK  380  A    between atoms: _932  and  _933
REMARK  381  A    between atoms: _935  and  _937
REMARK  382  A    between atoms: _937  and  _938
REMARK  383  A    between atoms: _937  and  _940
REMARK  384  A    between atoms: _940  and  _941
REMARK  385  A    between atoms: _946  and  _947
REMARK  386  A    between atoms: _949  and  _951
REMARK  387  A    between atoms: _951  and  _952
REMARK  388  A    between atoms: _956  and  _957
REMARK  389  A    between atoms: _962  and  _964
REMARK  390  A    between atoms: _964  and  _965
REMARK  391  A    between atoms: _964  and  _967
REMARK  392  A    between atoms: _967  and  _968
REMARK  393  A    between atoms: _970  and  _972
REMARK  394  A    between atoms: _972  and  _973
REMARK  395  A    between atoms: _972  and  _975
REMARK  396  A    between atoms: _975  and  _976
REMARK  397  A    between atoms: _981  and  _983
REMARK  398  A    between atoms: _983  and  _984
REMARK  399  A    between atoms: _983  and  _986
REMARK  400  A    between atoms: _986  and  _987
REMARK  401  A    between atoms: _987  and  _988
REMARK  402  A    between atoms: _988  and  _989
REMARK  403  A    between atoms: _989  and  _990
REMARK  404  A    between atoms: _994  and  _996
REMARK  405  A    between atoms: _996  and  _997
REMARK  406  A    between atoms: _996  and  _999
REMARK  407  A    between atoms: _999  and  _1000
REMARK  408  A    between atoms: _1005  and  _1006
REMARK  409  A    between atoms: _1008  and  _1010
REMARK  410  A    between atoms: _1010  and  _1011
REMARK  411  A    between atoms: _1014  and  _1016
REMARK  412  A    between atoms: _1016  and  _1017
REMARK  413  A    between atoms: _1019  and  _1021
REMARK  414  A    between atoms: _1021  and  _1022
REMARK  415  A    between atoms: _1021  and  _1024
REMARK  416  A    between atoms: _1024  and  _1025
REMARK  417  A    between atoms: _1025  and  _1026
REMARK  418  A    between atoms: _1029  and  _1031
REMARK  419  A    between atoms: _1031  and  _1032
REMARK  420  A    between atoms: _1031  and  _1034
REMARK  421  A    between atoms: _1034  and  _1035
REMARK                            x       y       z     vdW  Elec       q    Type
REMARK                         _______ _______ _______ _____ _____    ______ ____
ROOT
ATOM      1  O   HOH     1      10.166  51.731  39.883  0.00  0.00    +0.000 OA
ENDROOT
TORSDOF 0
REMARK  Name = ../refined-set-2016/2xef/2xef_pocket.pdb
REMARK  421 active torsions:
REMARK  status: ('A' for Active; 'I' for Inactive)
REMARK    1  A    between atoms: _1  and  _3
REMARK    2  A    between atoms: _3  and  _4
REMARK    3  A    between atoms: _7  and  _9
REMARK    4  A    between atoms: _9  and  _10
REMARK    5  A    between atoms: _9  and  _12
REMARK    6  A    between atoms: _12  and  _13
REMARK    7  A    between atoms: _19  and  _21
REMARK    8  A    between atoms: _21  and  _22
REMARK    9  A    between atoms: _21  and  _24
REMARK   10  A    between atoms: _24  and  _25
REMARK   11  A    between atoms: _30  and  _31
REMARK   12  A    between atoms: _33  and  _35
REMARK   13  A    between atoms: _35  and  _36
REMARK   14  A    between atoms: _38  and  _40
REMARK   15  A    between atoms: _40  and  _41
REMARK   16  A    between atoms: _40  and  _43
REMARK   17  A    between atoms: _43  and  _44
REMARK   18  A    between atoms: _44  and  _45
REMARK   19  A    between atoms: _45  and  _46
REMARK   20  A    between atoms: _46  and  _47
REMARK   21  A    between atoms: _51  and  _53
REMARK   22  A    between atoms: _53  and  _54
REMARK   23  A    between atoms: _53  and  _56
REMARK   24  A    between atoms: _59  and  _61
REMARK   25  A    between atoms: _61  and  _62
REMARK   26  A    between atoms: _61  and  _64
REMARK   27  A    between atoms: _64  and  _65
REMARK   28  A    between atoms: _71  and  _73
REMARK   29  A    between atoms: _73  and  _74
REMARK   30  A    between atoms: _73  and  _76
REMARK   31  A    between atoms: _76  and  _77
REMARK   32  A    between atoms: _77  and  _78
REMARK   33  A    between atoms: _78  and  _79
REMARK   34  A    between atoms: _88  and  _90
REMARK   35  A    between atoms: _90  and  _91
REMARK   36  A    between atoms: _93  and  _95
REMARK   37  A    between atoms: _95  and  _96
REMARK   38  A    between atoms: _95  and  _98
REMARK   39  A    between atoms: _98  and  _99
REMARK   40  A    between atoms: _99  and  _100
REMARK   41  A    between atoms: _100  and  _101
REMARK   42  A    between atoms: _101  and  _102
REMARK   43  A    between atoms: _106  and  _108
REMARK   44  A    between atoms: _108  and  _109
REMARK   45  A    between atoms: _108  and  _111
REMARK   46  A    between atoms: _111  and  _112
REMARK   47  A    between atoms: _117  and  _118
REMARK   48  A    between atoms: _120  and  _122
REMARK   49  A    between atoms: _122  and  _123
REMARK   50  A    between atoms: _122  and  _125
REMARK   51  A    between atoms: _125  and  _126
REMARK   52  A    between atoms: _126  and  _127
REMARK   53  A    between atoms: _132  and  _134
REMARK   54  A    between atoms: _134  and  _135
REMARK   55  A    between atoms: _134  and  _137
REMARK   56  A    between atoms: _137  and  _138
REMARK   57  A    between atoms: _138  and  _139
REMARK   58  A    between atoms: _139  and  _140
REMARK   59  A    between atoms: _149  and  _151
REMARK   60  A    between atoms: _151  and  _152
REMARK   61  A    between atoms: _154  and  _156
REMARK   62  A    between atoms: _156  and  _157
REMARK   63  A    between atoms: _156  and  _159
REMARK   64  A    between atoms: _159  and  _160
REMARK   65  A    between atoms: _165  and  _167
REMARK   66  A    between atoms: _167  and  _168
REMARK   67  A    between atoms: _167  and  _170
REMARK   68  A    between atoms: _170  and  _171
REMARK   69  A    between atoms: _174  and  _176
REMARK   70  A    between atoms: _176  and  _177
REMARK   71  A    between atoms: _176  and  _179
REMARK   72  A    between atoms: _179  and  _180
REMARK   73  A    between atoms: _183  and  _185
REMARK   74  A    between atoms: _185  and  _186
REMARK   75  A    between atoms: _185  and  _188
REMARK   76  A    between atoms: _188  and  _189
REMARK   77  A    between atoms: _194  and  _196
REMARK   78  A    between atoms: _196  and  _197
REMARK   79  A    between atoms: _196  and  _199
REMARK   80  A    between atoms: _199  and  _200
REMARK   81  A    between atoms: _203  and  _205
REMARK   82  A    between atoms: _205  and  _206
REMARK   83  A    between atoms: _205  and  _208
REMARK   84  A    between atoms: _208  and  _209
REMARK   85  A    between atoms: _214  and  _216
REMARK   86  A    between atoms: _216  and  _217
REMARK   87  A    between atoms: _219  and  _221
REMARK   88  A    between atoms: _221  and  _222
REMARK   89  A    between atoms: _224  and  _226
REMARK   90  A    between atoms: _226  and  _227
REMARK   91  A    between atoms: _226  and  _229
REMARK   92  A    between atoms: _229  and  _230
REMARK   93  A    between atoms: _234  and  ZN_1038
REMARK   94  A    between atoms: _235  and  _237
REMARK   95  A    between atoms: _237  and  _238
REMARK   96  A    between atoms: _237  and  _240
REMARK   97  A    between atoms: _240  and  _241
REMARK   98  A    between atoms: _244  and  _246
REMARK   99  A    between atoms: _246  and  _247
REMARK  100  A    between atoms: _246  and  _249
REMARK  101  A    between atoms: _249  and  _250
REMARK  102  A    between atoms: _260  and  _262
REMARK  103  A    between atoms: _262  and  _263
REMARK  104  A    between atoms: _262  and  _265
REMARK  105  A    between atoms: _265  and  _266
REMARK  106  A    between atoms: _269  and  _271
REMARK  107  A    between atoms: _271  and  _272
REMARK  108  A    between atoms: _271  and  _274
REMARK  109  A    between atoms: _274  and  _275
REMARK  110  A    between atoms: _279  and  _280
REMARK  111  A    between atoms: _285  and  _287
REMARK  112  A    between atoms: _287  and  _288
REMARK  113  A    between atoms: _291  and  _293
REMARK  114  A    between atoms: _293  and  _294
REMARK  115  A    between atoms: _293  and  _296
REMARK  116  A    between atoms: _296  and  _297
REMARK  117  A    between atoms: _297  and  _298
REMARK  118  A    between atoms: _301  and  _303
REMARK  119  A    between atoms: _303  and  _304
REMARK  120  A    between atoms: _303  and  _306
REMARK  121  A    between atoms: _306  and  _307
REMARK  122  A    between atoms: _307  and  _308
REMARK  123  A    between atoms: _308  and  _310
REMARK  124  A    between atoms: _310  and  ZN_1037
REMARK  125  A    between atoms: _311  and  _313
REMARK  126  A    between atoms: _313  and  _314
REMARK  127  A    between atoms: _313  and  _316
REMARK  128  A    between atoms: _316  and  _317
REMARK  129  A    between atoms: _323  and  _325
REMARK  130  A    between atoms: _325  and  _326
REMARK  131  A    between atoms: _328  and  _330
REMARK  132  A    between atoms: _330  and  _331
REMARK  133  A    between atoms: _330  and  _333
REMARK  134  A    between atoms: _333  and  _334
REMARK  135  A    between atoms: _337  and  _339
REMARK  136  A    between atoms: _339  and  _340
REMARK  137  A    between atoms: _339  and  _342
REMARK  138  A    between atoms: _342  and  _343
REMARK  139  A    between atoms: _346  and  _348
REMARK  140  A    between atoms: _348  and  _349
REMARK  141  A    between atoms: _348  and  _351
REMARK  142  A    between atoms: _351  and  _352
REMARK  143  A    between atoms: _357  and  _359
REMARK  144  A    between atoms: _359  and  _360
REMARK  145  A    between atoms: _359  and  _362
REMARK  146  A    between atoms: _362  and  _363
REMARK  147  A    between atoms: _363  and  _365
REMARK  148  A    between atoms: _365  and  ZN_1038
REMARK  149  A    between atoms: _366  and  _368
REMARK  150  A    between atoms: _368  and  _369
REMARK  151  A    between atoms: _368  and  _371
REMARK  152  A    between atoms: _371  and  _372
REMARK  153  A    between atoms: _374  and  _376
REMARK  154  A    between atoms: _376  and  _377
REMARK  155  A    between atoms: _376  and  _379
REMARK  156  A    between atoms: _379  and  _380
REMARK  157  A    between atoms: _382  and  _384
REMARK  158  A    between atoms: _384  and  _385
REMARK  159  A    between atoms: _384  and  _387
REMARK  160  A    between atoms: _387  and  _388
REMARK  161  A    between atoms: _391  and  _393
REMARK  162  A    between atoms: _393  and  _394
REMARK  163  A    between atoms: _393  and  _396
REMARK  164  A    between atoms: _396  and  _397
REMARK  165  A    between atoms: _397  and  _398
REMARK  166  A    between atoms: _401  and  _403
REMARK  167  A    between atoms: _403  and  _404
REMARK  168  A    between atoms: _403  and  _406
REMARK  169  A    between atoms: _406  and  _407
REMARK  170  A    between atoms: _412  and  _413
REMARK  171  A    between atoms: _415  and  _417
REMARK  172  A    between atoms: _417  and  _418
REMARK  173  A    between atoms: _417  and  _420
REMARK  174  A    between atoms: _420  and  _421
REMARK  175  A    between atoms: _424  and  _426
REMARK  176  A    between atoms: _426  and  _427
REMARK  177  A    between atoms: _426  and  _429
REMARK  178  A    between atoms: _429  and  _430
REMARK  179  A    between atoms: _433  and  _435
REMARK  180  A    between atoms: _435  and  _436
REMARK  181  A    between atoms: _435  and  _438
REMARK  182  A    between atoms: _438  and  _439
REMARK  183  A    between atoms: _439  and  _440
REMARK  184  A    between atoms: _440  and  _441
REMARK  185  A    between atoms: _450  and  _452
REMARK  186  A    between atoms: _452  and  _453
REMARK  187  A    between atoms: _452  and  _455
REMARK  188  A    between atoms: _458  and  _460
REMARK  189  A    between atoms: _460  and  _461
REMARK  190  A    between atoms: _460  and  _463
REMARK  191  A    between atoms: _463  and  _464
REMARK  192  A    between atoms: _467  and  _469
REMARK  193  A    between atoms: _469  and  _470
REMARK  194  A    between atoms: _469  and  _472
REMARK  195  A    between atoms: _474  and  _476
REMARK  196  A    between atoms: _476  and  _477
REMARK  197  A    between atoms: _476  and  _479
REMARK  198  A    between atoms: _479  and  _480
REMARK  199  A    between atoms: _490  and  _492
REMARK  200  A    between atoms: _492  and  _493
REMARK  201  A    between atoms: _492  and  _495
REMARK  202  A    between atoms: _495  and  _496
REMARK  203  A    between atoms: _496  and  _497
REMARK  204  A    between atoms: _497  and  _498
REMARK  205  A    between atoms: _498  and  _499
REMARK  206  A    between atoms: _503  and  _505
REMARK  207  A    between atoms: _505  and  _506
REMARK  208  A    between atoms: _505  and  _508
REMARK  209  A    between atoms: _508  and  _509
REMARK  210  A    between atoms: _512  and  _513
REMARK  211  A    between atoms: _519  and  _520
REMARK  212  A    between atoms: _525  and  _527
REMARK  213  A    between atoms: _527  and  _528
REMARK  214  A    between atoms: _527  and  _530
REMARK  215  A    between atoms: _530  and  _531
REMARK  216  A    between atoms: _531  and  _532
REMARK  217  A    between atoms: _535  and  _537
REMARK  218  A    between atoms: _537  and  _538
REMARK  219  A    between atoms: _537  and  _540
REMARK  220  A    between atoms: _540  and  _541
REMARK  221  A    between atoms: _541  and  _542
REMARK  222  A    between atoms: _542  and  _543
REMARK  223  A    between atoms: _552  and  _554
REMARK  224  A    between atoms: _554  and  _555
REMARK  225  A    between atoms: _554  and  _557
REMARK  226  A    between atoms: _557  and  _558
REMARK  227  A    between atoms: _561  and  _563
REMARK  228  A    between atoms: _563  and  _564
REMARK  229  A    between atoms: _563  and  _566
REMARK  230  A    between atoms: _566  and  _567
REMARK  231  A    between atoms: _569  and  _571
REMARK  232  A    between atoms: _571  and  _572
REMARK  233  A    between atoms: _571  and  _574
REMARK  234  A    between atoms: _574  and  _575
REMARK  235  A    between atoms: _575  and  _576
REMARK  236  A    between atoms: _576  and  _577
REMARK  237  A    between atoms: _577  and  _578
REMARK  238  A    between atoms: _582  and  _584
REMARK  239  A    between atoms: _584  and  _585
REMARK  240  A    between atoms: _584  and  _587
REMARK  241  A    between atoms: _587  and  _588
REMARK  242  A    between atoms: _591  and  _593
REMARK  243  A    between atoms: _593  and  _594
REMARK  244  A    between atoms: _596  and  _598
REMARK  245  A    between atoms: _598  and  _599
REMARK  246  A    between atoms: _598  and  _601
REMARK  247  A    between atoms: _601  and  _602
REMARK  248  A    between atoms: _604  and  _606
REMARK  249  A    between atoms: _606  and  _607
REMARK  250  A    between atoms: _609  and  _611
REMARK  251  A    between atoms: _611  and  _612
REMARK  252  A    between atoms: _611  and  _614
REMARK  253  A    between atoms: _614  and  _615
REMARK  254  A    between atoms: _620  and  _622
REMARK  255  A    between atoms: _622  and  _623
REMARK  256  A    between atoms: _622  and  _625
REMARK  257  A    between atoms: _625  and  _626
REMARK  258  A    between atoms: _629  and  _631
REMARK  259  A    between atoms: _631  and  _632
REMARK  260  A    between atoms: _631  and  _634
REMARK  261  A    between atoms: _634  and  _635
REMARK  262  A    between atoms: _641  and  _643
REMARK  263  A    between atoms: _643  and  _644
REMARK  264  A    between atoms: _643  and  _646
REMARK  265  A    between atoms: _646  and  _647
REMARK  266  A    between atoms: _647  and  _648
REMARK  267  A    between atoms: _651  and  _653
REMARK  268  A    between atoms: _653  and  _654
REMARK  269  A    between atoms: _653  and  _656
REMARK  270  A    between atoms: _656  and  _657
REMARK  271  A    between atoms: _657  and  _658
REMARK  272  A    between atoms: _663  and  _665
REMARK  273  A    between atoms: _665  and  _666
REMARK  274  A    between atoms: _665  and  _668
REMARK  275  A    between atoms: _668  and  _669
REMARK  276  A    between atoms: _669  and  _670
REMARK  277  A    between atoms: _670  and  _671
REMARK  278  A    between atoms: _680  and  _682
REMARK  279  A    between atoms: _682  and  _683
REMARK  280  A    between atoms: _682  and  _685
REMARK  281  A    between atoms: _685  and  _686
REMARK  282  A    between atoms: _686  and  _687
REMARK  283  A    between atoms: _687  and  _688
REMARK  284  A    between atoms: _697  and  _699
REMARK  285  A    between atoms: _699  and  _700
REMARK  286  A    between atoms: _699  and  _702
REMARK  287  A    between atoms: _702  and  _703
REMARK  288  A    between atoms: _708  and  _709
REMARK  289  A    between atoms: _711  and  _713
REMARK  290  A    between atoms: _713  and  _714
REMARK  291  A    between atoms: _713  and  _716
REMARK  292  A    between atoms: _716  and  _717
REMARK  293  A    between atoms: _720  and  _722
REMARK  294  A    between atoms: _722  and  _723
REMARK  295  A    between atoms: _722  and  _725
REMARK  296  A    between atoms: _725  and  _726
REMARK  297  A    between atoms: _726  and  _727
REMARK  298  A    between atoms: _727  and  _728
REMARK  299  A    between atoms: _728  and  _729
REMARK  300  A    between atoms: _733  and  _735
REMARK  301  A    between atoms: _735  and  _736
REMARK  302  A    between atoms: _735  and  _738
REMARK  303  A    between atoms: _738  and  _739
REMARK  304  A    between atoms: _744  and  _746
REMARK  305  A    between atoms: _746  and  _747
REMARK  306  A    between atoms: _746  and  _749
REMARK  307  A    between atoms: _749  and  _750
REMARK  308  A    between atoms: _760  and  _762
REMARK  309  A    between atoms: _762  and  _763
REMARK  310  A    between atoms: _762  and  _765
REMARK  311  A    between atoms: _765  and  _766
REMARK  312  A    between atoms: _766  and  _767
REMARK  313  A    between atoms: _770  and  _772
REMARK  314  A    between atoms: _772  and  _773
REMARK  315  A    between atoms: _772  and  _775
REMARK  316  A    between atoms: _775  and  _776
REMARK  317  A    between atoms: _779  and  _781
REMARK  318  A    between atoms: _781  and  _782
REMARK  319  A    between atoms: _781  and  _784
REMARK  320  A    between atoms: _784  and  _785
REMARK  321  A    between atoms: _790  and  _792
REMARK  322  A    between atoms: _792  and  _793
REMARK  323  A    between atoms: _792  and  _795
REMARK  324  A    between atoms: _795  and  _796
REMARK  325  A    between atoms: _802  and  _804
REMARK  326  A    between atoms: _804  and  _805
REMARK  327  A    between atoms: _804  and  _807
REMARK  328  A    between atoms: _807  and  _808
REMARK  329  A    between atoms: _810  and  _812
REMARK  330  A    between atoms: _812  and  _813
REMARK  331  A    between atoms: _815  and  _817
REMARK  332  A    between atoms: _817  and  _818
REMARK  333  A    between atoms: _817  and  _820
REMARK  334  A    between atoms: _820  and  _821
REMARK  335  A    between atoms: _826  and  _827
REMARK  336  A    between atoms: _829  and  _831
REMARK  337  A    between atoms: _831  and  _832
REMARK  338  A    between atoms: _831  and  _834
REMARK  339  A    between atoms: _834  and  _835
REMARK  340  A    between atoms: _840  and  _841
REMARK  341  A    between atoms: _843  and  _845
REMARK  342  A    between atoms: _845  and  _846
REMARK  343  A    between atoms: _845  and  _848
REMARK  344  A    between atoms: _848  and  _849
REMARK  345  A    between atoms: _853  and  ZN_1037
REMARK  346  A    between atoms: _854  and  _856
REMARK  347  A    between atoms: _856  and  _857
REMARK  348  A    between atoms: _856  and  _859
REMARK  349  A    between atoms: _859  and  _860
REMARK  350  A    between atoms: _860  and  _861
REMARK  351  A    between atoms: _864  and  _866
REMARK  352  A    between atoms: _866  and  _867
REMARK  353  A    between atoms: _866  and  _869
REMARK  354  A    between atoms: _869  and  _870
REMARK  355  A    between atoms: _870  and  _871
REMARK  356  A    between atoms: _871  and  _872
REMARK  357  A    between atoms: _881  and  _883
REMARK  358  A    between atoms: _883  and  _884
REMARK  359  A    between atoms: _883  and  _886
REMARK  360  A    between atoms: _886  and  _887
REMARK  361  A    between atoms: _887  and  _888
REMARK  362  A    between atoms: _888  and  _889
REMARK  363  A    between atoms: _889  and  _890
REMARK  364  A    between atoms: _894  and  _896
REMARK  365  A    between atoms: _896  and  _897
REMARK  366  A    between atoms: _896  and  _899
REMARK  367  A    between atoms: _899  and  _900
REMARK  368  A    between atoms: _905  and  _906
REMARK  369  A    between atoms: _908  and  _910
REMARK  370  A    between atoms: _910  and  _911
REMARK  371  A    between atoms: _910  and  _913
REMARK  372  A    between atoms: _913  and  _914
REMARK  373  A    between atoms: _914  and  _915
REMARK  374  A    between atoms: _915  and  _916
REMARK  375  A    between atoms: _916  and  _917
REMARK  376  A    between atoms: _921  and  _923
REMARK  377  A    between atoms: _923  and  _924
REMARK  378  A    between atoms: _923  and  _926
REMARK  379  A    between atoms: _926  and  _927
REMARK  380  A    between atoms: _932  and  _933
REMARK  381  A    between atoms: _935  and  _937
REMARK  382  A    between atoms: _937  and  _938
REMARK  383  A    between atoms: _937  and  _940
REMARK  384  A    between atoms: _940  and  _941
REMARK  385  A    between atoms: _946  and  _947
REMARK  386  A    between atoms: _949  and  _951
REMARK  387  A    between atoms: _951  and  _952
REMARK  388  A    between atoms: _956  and  _957
REMARK  389  A    between atoms: _962  and  _964
REMARK  390  A    between atoms: _964  and  _965
REMARK  391  A    between atoms: _964  and  _967
REMARK  392  A    between atoms: _967  and  _968
REMARK  393  A    between atoms: _970  and  _972
REMARK  394  A    between atoms: _972  and  _973
REMARK  395  A    between atoms: _972  and  _975
REMARK  396  A    between atoms: _975  and  _976
REMARK  397  A    between atoms: _981  and  _983
REMARK  398  A    between atoms: _983  and  _984
REMARK  399  A    between atoms: _983  and  _986
REMARK  400  A    between atoms: _986  and  _987
REMARK  401  A    between atoms: _987  and  _988
REMARK  402  A    between atoms: _988  and  _989
REMARK  403  A    between atoms: _989  and  _990
REMARK  404  A    between atoms: _994  and  _996
REMARK  405  A    between atoms: _996  and  _997
REMARK  406  A    between atoms: _996  and  _999
REMARK  407  A    between atoms: _999  and  _1000
REMARK  408  A    between atoms: _1005  and  _1006
REMARK  409  A    between atoms: _1008  and  _1010
REMARK  410  A    between atoms: _1010  and  _1011
REMARK  411  A    between atoms: _1014  and  _1016
REMARK  412  A    between atoms: _1016  and  _1017
REMARK  413  A    between atoms: _1019  and  _1021
REMARK  414  A    between atoms: _1021  and  _1022
REMARK  415  A    between atoms: _1021  and  _1024
REMARK  416  A    between atoms: _1024  and  _1025
REMARK  417  A    between atoms: _1025  and  _1026
REMARK  418  A    between atoms: _1029  and  _1031
REMARK  419  A    between atoms: _1031  and  _1032
REMARK  420  A    between atoms: _1031  and  _1034
REMARK  421  A    between atoms: _1034  and  _1035
REMARK                            x       y       z     vdW  Elec       q    Type
REMARK                         _______ _______ _______ _____ _____    ______ ____
ROOT
ATOM      1  O   HOH     1       9.111  50.691  46.353  0.00  0.00    +0.000 OA
ENDROOT
TORSDOF 0
REMARK  Name = ../refined-set-2016/2xef/2xef_pocket.pdb
REMARK  421 active torsions:
REMARK  status: ('A' for Active; 'I' for Inactive)
REMARK    1  A    between atoms: _1  and  _3
REMARK    2  A    between atoms: _3  and  _4
REMARK    3  A    between atoms: _7  and  _9
REMARK    4  A    between atoms: _9  and  _10
REMARK    5  A    between atoms: _9  and  _12
REMARK    6  A    between atoms: _12  and  _13
REMARK    7  A    between atoms: _19  and  _21
REMARK    8  A    between atoms: _21  and  _22
REMARK    9  A    between atoms: _21  and  _24
REMARK   10  A    between atoms: _24  and  _25
REMARK   11  A    between atoms: _30  and  _31
REMARK   12  A    between atoms: _33  and  _35
REMARK   13  A    between atoms: _35  and  _36
REMARK   14  A    between atoms: _38  and  _40
REMARK   15  A    between atoms: _40  and  _41
REMARK   16  A    between atoms: _40  and  _43
REMARK   17  A    between atoms: _43  and  _44
REMARK   18  A    between atoms: _44  and  _45
REMARK   19  A    between atoms: _45  and  _46
REMARK   20  A    between atoms: _46  and  _47
REMARK   21  A    between atoms: _51  and  _53
REMARK   22  A    between atoms: _53  and  _54
REMARK   23  A    between atoms: _53  and  _56
REMARK   24  A    between atoms: _59  and  _61
REMARK   25  A    between atoms: _61  and  _62
REMARK   26  A    between atoms: _61  and  _64
REMARK   27  A    between atoms: _64  and  _65
REMARK   28  A    between atoms: _71  and  _73
REMARK   29  A    between atoms: _73  and  _74
REMARK   30  A    between atoms: _73  and  _76
REMARK   31  A    between atoms: _76  and  _77
REMARK   32  A    between atoms: _77  and  _78
REMARK   33  A    between atoms: _78  and  _79
REMARK   34  A    between atoms: _88  and  _90
REMARK   35  A    between atoms: _90  and  _91
REMARK   36  A    between atoms: _93  and  _95
REMARK   37  A    between atoms: _95  and  _96
REMARK   38  A    between atoms: _95  and  _98
REMARK   39  A    between atoms: _98  and  _99
REMARK   40  A    between atoms: _99  and  _100
REMARK   41  A    between atoms: _100  and  _101
REMARK   42  A    between atoms: _101  and  _102
REMARK   43  A    between atoms: _106  and  _108
REMARK   44  A    between atoms: _108  and  _109
REMARK   45  A    between atoms: _108  and  _111
REMARK   46  A    between atoms: _111  and  _112
REMARK   47  A    between atoms: _117  and  _118
REMARK   48  A    between atoms: _120  and  _122
REMARK   49  A    between atoms: _122  and  _123
REMARK   50  A    between atoms: _122  and  _125
REMARK   51  A    between atoms: _125  and  _126
REMARK   52  A    between atoms: _126  and  _127
REMARK   53  A    between atoms: _132  and  _134
REMARK   54  A    between atoms: _134  and  _135
REMARK   55  A    between atoms: _134  and  _137
REMARK   56  A    between atoms: _137  and  _138
REMARK   57  A    between atoms: _138  and  _139
REMARK   58  A    between atoms: _139  and  _140
REMARK   59  A    between atoms: _149  and  _151
REMARK   60  A    between atoms: _151  and  _152
REMARK   61  A    between atoms: _154  and  _156
REMARK   62  A    between atoms: _156  and  _157
REMARK   63  A    between atoms: _156  and  _159
REMARK   64  A    between atoms: _159  and  _160
REMARK   65  A    between atoms: _165  and  _167
REMARK   66  A    between atoms: _167  and  _168
REMARK   67  A    between atoms: _167  and  _170
REMARK   68  A    between atoms: _170  and  _171
REMARK   69  A    between atoms: _174  and  _176
REMARK   70  A    between atoms: _176  and  _177
REMARK   71  A    between atoms: _176  and  _179
REMARK   72  A    between atoms: _179  and  _180
REMARK   73  A    between atoms: _183  and  _185
REMARK   74  A    between atoms: _185  and  _186
REMARK   75  A    between atoms: _185  and  _188
REMARK   76  A    between atoms: _188  and  _189
REMARK   77  A    between atoms: _194  and  _196
REMARK   78  A    between atoms: _196  and  _197
REMARK   79  A    between atoms: _196  and  _199
REMARK   80  A    between atoms: _199  and  _200
REMARK   81  A    between atoms: _203  and  _205
REMARK   82  A    between atoms: _205  and  _206
REMARK   83  A    between atoms: _205  and  _208
REMARK   84  A    between atoms: _208  and  _209
REMARK   85  A    between atoms: _214  and  _216
REMARK   86  A    between atoms: _216  and  _217
REMARK   87  A    between atoms: _219  and  _221
REMARK   88  A    between atoms: _221  and  _222
REMARK   89  A    between atoms: _224  and  _226
REMARK   90  A    between atoms: _226  and  _227
REMARK   91  A    between atoms: _226  and  _229
REMARK   92  A    between atoms: _229  and  _230
REMARK   93  A    between atoms: _234  and  ZN_1038
REMARK   94  A    between atoms: _235  and  _237
REMARK   95  A    between atoms: _237  and  _238
REMARK   96  A    between atoms: _237  and  _240
REMARK   97  A    between atoms: _240  and  _241
REMARK   98  A    between atoms: _244  and  _246
REMARK   99  A    between atoms: _246  and  _247
REMARK  100  A    between atoms: _246  and  _249
REMARK  101  A    between atoms: _249  and  _250
REMARK  102  A    between atoms: _260  and  _262
REMARK  103  A    between atoms: _262  and  _263
REMARK  104  A    between atoms: _262  and  _265
REMARK  105  A    between atoms: _265  and  _266
REMARK  106  A    between atoms: _269  and  _271
REMARK  107  A    between atoms: _271  and  _272
REMARK  108  A    between atoms: _271  and  _274
REMARK  109  A    between atoms: _274  and  _275
REMARK  110  A    between atoms: _279  and  _280
REMARK  111  A    between atoms: _285  and  _287
REMARK  112  A    between atoms: _287  and  _288
REMARK  113  A    between atoms: _291  and  _293
REMARK  114  A    between atoms: _293  and  _294
REMARK  115  A    between atoms: _293  and  _296
REMARK  116  A    between atoms: _296  and  _297
REMARK  117  A    between atoms: _297  and  _298
REMARK  118  A    between atoms: _301  and  _303
REMARK  119  A    between atoms: _303  and  _304
REMARK  120  A    between atoms: _303  and  _306
REMARK  121  A    between atoms: _306  and  _307
REMARK  122  A    between atoms: _307  and  _308
REMARK  123  A    between atoms: _308  and  _310
REMARK  124  A    between atoms: _310  and  ZN_1037
REMARK  125  A    between atoms: _311  and  _313
REMARK  126  A    between atoms: _313  and  _314
REMARK  127  A    between atoms: _313  and  _316
REMARK  128  A    between atoms: _316  and  _317
REMARK  129  A    between atoms: _323  and  _325
REMARK  130  A    between atoms: _325  and  _326
REMARK  131  A    between atoms: _328  and  _330
REMARK  132  A    between atoms: _330  and  _331
REMARK  133  A    between atoms: _330  and  _333
REMARK  134  A    between atoms: _333  and  _334
REMARK  135  A    between atoms: _337  and  _339
REMARK  136  A    between atoms: _339  and  _340
REMARK  137  A    between atoms: _339  and  _342
REMARK  138  A    between atoms: _342  and  _343
REMARK  139  A    between atoms: _346  and  _348
REMARK  140  A    between atoms: _348  and  _349
REMARK  141  A    between atoms: _348  and  _351
REMARK  142  A    between atoms: _351  and  _352
REMARK  143  A    between atoms: _357  and  _359
REMARK  144  A    between atoms: _359  and  _360
REMARK  145  A    between atoms: _359  and  _362
REMARK  146  A    between atoms: _362  and  _363
REMARK  147  A    between atoms: _363  and  _365
REMARK  148  A    between atoms: _365  and  ZN_1038
REMARK  149  A    between atoms: _366  and  _368
REMARK  150  A    between atoms: _368  and  _369
REMARK  151  A    between atoms: _368  and  _371
REMARK  152  A    between atoms: _371  and  _372
REMARK  153  A    between atoms: _374  and  _376
REMARK  154  A    between atoms: _376  and  _377
REMARK  155  A    between atoms: _376  and  _379
REMARK  156  A    between atoms: _379  and  _380
REMARK  157  A    between atoms: _382  and  _384
REMARK  158  A    between atoms: _384  and  _385
REMARK  159  A    between atoms: _384  and  _387
REMARK  160  A    between atoms: _387  and  _388
REMARK  161  A    between atoms: _391  and  _393
REMARK  162  A    between atoms: _393  and  _394
REMARK  163  A    between atoms: _393  and  _396
REMARK  164  A    between atoms: _396  and  _397
REMARK  165  A    between atoms: _397  and  _398
REMARK  166  A    between atoms: _401  and  _403
REMARK  167  A    between atoms: _403  and  _404
REMARK  168  A    between atoms: _403  and  _406
REMARK  169  A    between atoms: _406  and  _407
REMARK  170  A    between atoms: _412  and  _413
REMARK  171  A    between atoms: _415  and  _417
REMARK  172  A    between atoms: _417  and  _418
REMARK  173  A    between atoms: _417  and  _420
REMARK  174  A    between atoms: _420  and  _421
REMARK  175  A    between atoms: _424  and  _426
REMARK  176  A    between atoms: _426  and  _427
REMARK  177  A    between atoms: _426  and  _429
REMARK  178  A    between atoms: _429  and  _430
REMARK  179  A    between atoms: _433  and  _435
REMARK  180  A    between atoms: _435  and  _436
REMARK  181  A    between atoms: _435  and  _438
REMARK  182  A    between atoms: _438  and  _439
REMARK  183  A    between atoms: _439  and  _440
REMARK  184  A    between atoms: _440  and  _441
REMARK  185  A    between atoms: _450  and  _452
REMARK  186  A    between atoms: _452  and  _453
REMARK  187  A    between atoms: _452  and  _455
REMARK  188  A    between atoms: _458  and  _460
REMARK  189  A    between atoms: _460  and  _461
REMARK  190  A    between atoms: _460  and  _463
REMARK  191  A    between atoms: _463  and  _464
REMARK  192  A    between atoms: _467  and  _469
REMARK  193  A    between atoms: _469  and  _470
REMARK  194  A    between atoms: _469  and  _472
REMARK  195  A    between atoms: _474  and  _476
REMARK  196  A    between atoms: _476  and  _477
REMARK  197  A    between atoms: _476  and  _479
REMARK  198  A    between atoms: _479  and  _480
REMARK  199  A    between atoms: _490  and  _492
REMARK  200  A    between atoms: _492  and  _493
REMARK  201  A    between atoms: _492  and  _495
REMARK  202  A    between atoms: _495  and  _496
REMARK  203  A    between atoms: _496  and  _497
REMARK  204  A    between atoms: _497  and  _498
REMARK  205  A    between atoms: _498  and  _499
REMARK  206  A    between atoms: _503  and  _505
REMARK  207  A    between atoms: _505  and  _506
REMARK  208  A    between atoms: _505  and  _508
REMARK  209  A    between atoms: _508  and  _509
REMARK  210  A    between atoms: _512  and  _513
REMARK  211  A    between atoms: _519  and  _520
REMARK  212  A    between atoms: _525  and  _527
REMARK  213  A    between atoms: _527  and  _528
REMARK  214  A    between atoms: _527  and  _530
REMARK  215  A    between atoms: _530  and  _531
REMARK  216  A    between atoms: _531  and  _532
REMARK  217  A    between atoms: _535  and  _537
REMARK  218  A    between atoms: _537  and  _538
REMARK  219  A    between atoms: _537  and  _540
REMARK  220  A    between atoms: _540  and  _541
REMARK  221  A    between atoms: _541  and  _542
REMARK  222  A    between atoms: _542  and  _543
REMARK  223  A    between atoms: _552  and  _554
REMARK  224  A    between atoms: _554  and  _555
REMARK  225  A    between atoms: _554  and  _557
REMARK  226  A    between atoms: _557  and  _558
REMARK  227  A    between atoms: _561  and  _563
REMARK  228  A    between atoms: _563  and  _564
REMARK  229  A    between atoms: _563  and  _566
REMARK  230  A    between atoms: _566  and  _567
REMARK  231  A    between atoms: _569  and  _571
REMARK  232  A    between atoms: _571  and  _572
REMARK  233  A    between atoms: _571  and  _574
REMARK  234  A    between atoms: _574  and  _575
REMARK  235  A    between atoms: _575  and  _576
REMARK  236  A    between atoms: _576  and  _577
REMARK  237  A    between atoms: _577  and  _578
REMARK  238  A    between atoms: _582  and  _584
REMARK  239  A    between atoms: _584  and  _585
REMARK  240  A    between atoms: _584  and  _587
REMARK  241  A    between atoms: _587  and  _588
REMARK  242  A    between atoms: _591  and  _593
REMARK  243  A    between atoms: _593  and  _594
REMARK  244  A    between atoms: _596  and  _598
REMARK  245  A    between atoms: _598  and  _599
REMARK  246  A    between atoms: _598  and  _601
REMARK  247  A    between atoms: _601  and  _602
REMARK  248  A    between atoms: _604  and  _606
REMARK  249  A    between atoms: _606  and  _607
REMARK  250  A    between atoms: _609  and  _611
REMARK  251  A    between atoms: _611  and  _612
REMARK  252  A    between atoms: _611  and  _614
REMARK  253  A    between atoms: _614  and  _615
REMARK  254  A    between atoms: _620  and  _622
REMARK  255  A    between atoms: _622  and  _623
REMARK  256  A    between atoms: _622  and  _625
REMARK  257  A    between atoms: _625  and  _626
REMARK  258  A    between atoms: _629  and  _631
REMARK  259  A    between atoms: _631  and  _632
REMARK  260  A    between atoms: _631  and  _634
REMARK  261  A    between atoms: _634  and  _635
REMARK  262  A    between atoms: _641  and  _643
REMARK  263  A    between atoms: _643  and  _644
REMARK  264  A    between atoms: _643  and  _646
REMARK  265  A    between atoms: _646  and  _647
REMARK  266  A    between atoms: _647  and  _648
REMARK  267  A    between atoms: _651  and  _653
REMARK  268  A    between atoms: _653  and  _654
REMARK  269  A    between atoms: _653  and  _656
REMARK  270  A    between atoms: _656  and  _657
REMARK  271  A    between atoms: _657  and  _658
REMARK  272  A    between atoms: _663  and  _665
REMARK  273  A    between atoms: _665  and  _666
REMARK  274  A    between atoms: _665  and  _668
REMARK  275  A    between atoms: _668  and  _669
REMARK  276  A    between atoms: _669  and  _670
REMARK  277  A    between atoms: _670  and  _671
REMARK  278  A    between atoms: _680  and  _682
REMARK  279  A    between atoms: _682  and  _683
REMARK  280  A    between atoms: _682  and  _685
REMARK  281  A    between atoms: _685  and  _686
REMARK  282  A    between atoms: _686  and  _687
REMARK  283  A    between atoms: _687  and  _688
REMARK  284  A    between atoms: _697  and  _699
REMARK  285  A    between atoms: _699  and  _700
REMARK  286  A    between atoms: _699  and  _702
REMARK  287  A    between atoms: _702  and  _703
REMARK  288  A    between atoms: _708  and  _709
REMARK  289  A    between atoms: _711  and  _713
REMARK  290  A    between atoms: _713  and  _714
REMARK  291  A    between atoms: _713  and  _716
REMARK  292  A    between atoms: _716  and  _717
REMARK  293  A    between atoms: _720  and  _722
REMARK  294  A    between atoms: _722  and  _723
REMARK  295  A    between atoms: _722  and  _725
REMARK  296  A    between atoms: _725  and  _726
REMARK  297  A    between atoms: _726  and  _727
REMARK  298  A    between atoms: _727  and  _728
REMARK  299  A    between atoms: _728  and  _729
REMARK  300  A    between atoms: _733  and  _735
REMARK  301  A    between atoms: _735  and  _736
REMARK  302  A    between atoms: _735  and  _738
REMARK  303  A    between atoms: _738  and  _739
REMARK  304  A    between atoms: _744  and  _746
REMARK  305  A    between atoms: _746  and  _747
REMARK  306  A    between atoms: _746  and  _749
REMARK  307  A    between atoms: _749  and  _750
REMARK  308  A    between atoms: _760  and  _762
REMARK  309  A    between atoms: _762  and  _763
REMARK  310  A    between atoms: _762  and  _765
REMARK  311  A    between atoms: _765  and  _766
REMARK  312  A    between atoms: _766  and  _767
REMARK  313  A    between atoms: _770  and  _772
REMARK  314  A    between atoms: _772  and  _773
REMARK  315  A    between atoms: _772  and  _775
REMARK  316  A    between atoms: _775  and  _776
REMARK  317  A    between atoms: _779  and  _781
REMARK  318  A    between atoms: _781  and  _782
REMARK  319  A    between atoms: _781  and  _784
REMARK  320  A    between atoms: _784  and  _785
REMARK  321  A    between atoms: _790  and  _792
REMARK  322  A    between atoms: _792  and  _793
REMARK  323  A    between atoms: _792  and  _795
REMARK  324  A    between atoms: _795  and  _796
REMARK  325  A    between atoms: _802  and  _804
REMARK  326  A    between atoms: _804  and  _805
REMARK  327  A    between atoms: _804  and  _807
REMARK  328  A    between atoms: _807  and  _808
REMARK  329  A    between atoms: _810  and  _812
REMARK  330  A    between atoms: _812  and  _813
REMARK  331  A    between atoms: _815  and  _817
REMARK  332  A    between atoms: _817  and  _818
REMARK  333  A    between atoms: _817  and  _820
REMARK  334  A    between atoms: _820  and  _821
REMARK  335  A    between atoms: _826  and  _827
REMARK  336  A    between atoms: _829  and  _831
REMARK  337  A    between atoms: _831  and  _832
REMARK  338  A    between atoms: _831  and  _834
REMARK  339  A    between atoms: _834  and  _835
REMARK  340  A    between atoms: _840  and  _841
REMARK  341  A    between atoms: _843  and  _845
REMARK  342  A    between atoms: _845  and  _846
REMARK  343  A    between atoms: _845  and  _848
REMARK  344  A    between atoms: _848  and  _849
REMARK  345  A    between atoms: _853  and  ZN_1037
REMARK  346  A    between atoms: _854  and  _856
REMARK  347  A    between atoms: _856  and  _857
REMARK  348  A    between atoms: _856  and  _859
REMARK  349  A    between atoms: _859  and  _860
REMARK  350  A    between atoms: _860  and  _861
REMARK  351  A    between atoms: _864  and  _866
REMARK  352  A    between atoms: _866  and  _867
REMARK  353  A    between atoms: _866  and  _869
REMARK  354  A    between atoms: _869  and  _870
REMARK  355  A    between atoms: _870  and  _871
REMARK  356  A    between atoms: _871  and  _872
REMARK  357  A    between atoms: _881  and  _883
REMARK  358  A    between atoms: _883  and  _884
REMARK  359  A    between atoms: _883  and  _886
REMARK  360  A    between atoms: _886  and  _887
REMARK  361  A    between atoms: _887  and  _888
REMARK  362  A    between atoms: _888  and  _889
REMARK  363  A    between atoms: _889  and  _890
REMARK  364  A    between atoms: _894  and  _896
REMARK  365  A    between atoms: _896  and  _897
REMARK  366  A    between atoms: _896  and  _899
REMARK  367  A    between atoms: _899  and  _900
REMARK  368  A    between atoms: _905  and  _906
REMARK  369  A    between atoms: _908  and  _910
REMARK  370  A    between atoms: _910  and  _911
REMARK  371  A    between atoms: _910  and  _913
REMARK  372  A    between atoms: _913  and  _914
REMARK  373  A    between atoms: _914  and  _915
REMARK  374  A    between atoms: _915  and  _916
REMARK  375  A    between atoms: _916  and  _917
REMARK  376  A    between atoms: _921  and  _923
REMARK  377  A    between atoms: _923  and  _924
REMARK  378  A    between atoms: _923  and  _926
REMARK  379  A    between atoms: _926  and  _927
REMARK  380  A    between atoms: _932  and  _933
REMARK  381  A    between atoms: _935  and  _937
REMARK  382  A    between atoms: _937  and  _938
REMARK  383  A    between atoms: _937  and  _940
REMARK  384  A    between atoms: _940  and  _941
REMARK  385  A    between atoms: _946  and  _947
REMARK  386  A    between atoms: _949  and  _951
REMARK  387  A    between atoms: _951  and  _952
REMARK  388  A    between atoms: _956  and  _957
REMARK  389  A    between atoms: _962  and  _964
REMARK  390  A    between atoms: _964  and  _965
REMARK  391  A    between atoms: _964  and  _967
REMARK  392  A    between atoms: _967  and  _968
REMARK  393  A    between atoms: _970  and  _972
REMARK  394  A    between atoms: _972  and  _973
REMARK  395  A    between atoms: _972  and  _975
REMARK  396  A    between atoms: _975  and  _976
REMARK  397  A    between atoms: _981  and  _983
REMARK  398  A    between atoms: _983  and  _984
REMARK  399  A    between atoms: _983  and  _986
REMARK  400  A    between atoms: _986  and  _987
REMARK  401  A    between atoms: _987  and  _988
REMARK  402  A    between atoms: _988  and  _989
REMARK  403  A    between atoms: _989  and  _990
REMARK  404  A    between atoms: _994  and  _996
REMARK  405  A    between atoms: _996  and  _997
REMARK  406  A    between atoms: _996  and  _999
REMARK  407  A    between atoms: _999  and  _1000
REMARK  408  A    between atoms: _1005  and  _1006
REMARK  409  A    between atoms: _1008  and  _1010
REMARK  410  A    between atoms: _1010  and  _1011
REMARK  411  A    between atoms: _1014  and  _1016
REMARK  412  A    between atoms: _1016  and  _1017
REMARK  413  A    between atoms: _1019  and  _1021
REMARK  414  A    between atoms: _1021  and  _1022
REMARK  415  A    between atoms: _1021  and  _1024
REMARK  416  A    between atoms: _1024  and  _1025
REMARK  417  A    between atoms: _1025  and  _1026
REMARK  418  A    between atoms: _1029  and  _1031
REMARK  419  A    between atoms: _1031  and  _1032
REMARK  420  A    between atoms: _1031  and  _1034
REMARK  421  A    between atoms: _1034  and  _1035
REMARK                            x       y       z     vdW  Elec       q    Type
REMARK                         _______ _______ _______ _____ _____    ______ ____
ROOT
ATOM      1  O   HOH     1      26.510  42.237  40.598  0.00  0.00    +0.000 OA
ENDROOT
TORSDOF 0
REMARK  Name = ../refined-set-2016/2xef/2xef_pocket.pdb
REMARK  421 active torsions:
REMARK  status: ('A' for Active; 'I' for Inactive)
REMARK    1  A    between atoms: _1  and  _3
REMARK    2  A    between atoms: _3  and  _4
REMARK    3  A    between atoms: _7  and  _9
REMARK    4  A    between atoms: _9  and  _10
REMARK    5  A    between atoms: _9  and  _12
REMARK    6  A    between atoms: _12  and  _13
REMARK    7  A    between atoms: _19  and  _21
REMARK    8  A    between atoms: _21  and  _22
REMARK    9  A    between atoms: _21  and  _24
REMARK   10  A    between atoms: _24  and  _25
REMARK   11  A    between atoms: _30  and  _31
REMARK   12  A    between atoms: _33  and  _35
REMARK   13  A    between atoms: _35  and  _36
REMARK   14  A    between atoms: _38  and  _40
REMARK   15  A    between atoms: _40  and  _41
REMARK   16  A    between atoms: _40  and  _43
REMARK   17  A    between atoms: _43  and  _44
REMARK   18  A    between atoms: _44  and  _45
REMARK   19  A    between atoms: _45  and  _46
REMARK   20  A    between atoms: _46  and  _47
REMARK   21  A    between atoms: _51  and  _53
REMARK   22  A    between atoms: _53  and  _54
REMARK   23  A    between atoms: _53  and  _56
REMARK   24  A    between atoms: _59  and  _61
REMARK   25  A    between atoms: _61  and  _62
REMARK   26  A    between atoms: _61  and  _64
REMARK   27  A    between atoms: _64  and  _65
REMARK   28  A    between atoms: _71  and  _73
REMARK   29  A    between atoms: _73  and  _74
REMARK   30  A    between atoms: _73  and  _76
REMARK   31  A    between atoms: _76  and  _77
REMARK   32  A    between atoms: _77  and  _78
REMARK   33  A    between atoms: _78  and  _79
REMARK   34  A    between atoms: _88  and  _90
REMARK   35  A    between atoms: _90  and  _91
REMARK   36  A    between atoms: _93  and  _95
REMARK   37  A    between atoms: _95  and  _96
REMARK   38  A    between atoms: _95  and  _98
REMARK   39  A    between atoms: _98  and  _99
REMARK   40  A    between atoms: _99  and  _100
REMARK   41  A    between atoms: _100  and  _101
REMARK   42  A    between atoms: _101  and  _102
REMARK   43  A    between atoms: _106  and  _108
REMARK   44  A    between atoms: _108  and  _109
REMARK   45  A    between atoms: _108  and  _111
REMARK   46  A    between atoms: _111  and  _112
REMARK   47  A    between atoms: _117  and  _118
REMARK   48  A    between atoms: _120  and  _122
REMARK   49  A    between atoms: _122  and  _123
REMARK   50  A    between atoms: _122  and  _125
REMARK   51  A    between atoms: _125  and  _126
REMARK   52  A    between atoms: _126  and  _127
REMARK   53  A    between atoms: _132  and  _134
REMARK   54  A    between atoms: _134  and  _135
REMARK   55  A    between atoms: _134  and  _137
REMARK   56  A    between atoms: _137  and  _138
REMARK   57  A    between atoms: _138  and  _139
REMARK   58  A    between atoms: _139  and  _140
REMARK   59  A    between atoms: _149  and  _151
REMARK   60  A    between atoms: _151  and  _152
REMARK   61  A    between atoms: _154  and  _156
REMARK   62  A    between atoms: _156  and  _157
REMARK   63  A    between atoms: _156  and  _159
REMARK   64  A    between atoms: _159  and  _160
REMARK   65  A    between atoms: _165  and  _167
REMARK   66  A    between atoms: _167  and  _168
REMARK   67  A    between atoms: _167  and  _170
REMARK   68  A    between atoms: _170  and  _171
REMARK   69  A    between atoms: _174  and  _176
REMARK   70  A    between atoms: _176  and  _177
REMARK   71  A    between atoms: _176  and  _179
REMARK   72  A    between atoms: _179  and  _180
REMARK   73  A    between atoms: _183  and  _185
REMARK   74  A    between atoms: _185  and  _186
REMARK   75  A    between atoms: _185  and  _188
REMARK   76  A    between atoms: _188  and  _189
REMARK   77  A    between atoms: _194  and  _196
REMARK   78  A    between atoms: _196  and  _197
REMARK   79  A    between atoms: _196  and  _199
REMARK   80  A    between atoms: _199  and  _200
REMARK   81  A    between atoms: _203  and  _205
REMARK   82  A    between atoms: _205  and  _206
REMARK   83  A    between atoms: _205  and  _208
REMARK   84  A    between atoms: _208  and  _209
REMARK   85  A    between atoms: _214  and  _216
REMARK   86  A    between atoms: _216  and  _217
REMARK   87  A    between atoms: _219  and  _221
REMARK   88  A    between atoms: _221  and  _222
REMARK   89  A    between atoms: _224  and  _226
REMARK   90  A    between atoms: _226  and  _227
REMARK   91  A    between atoms: _226  and  _229
REMARK   92  A    between atoms: _229  and  _230
REMARK   93  A    between atoms: _234  and  ZN_1038
REMARK   94  A    between atoms: _235  and  _237
REMARK   95  A    between atoms: _237  and  _238
REMARK   96  A    between atoms: _237  and  _240
REMARK   97  A    between atoms: _240  and  _241
REMARK   98  A    between atoms: _244  and  _246
REMARK   99  A    between atoms: _246  and  _247
REMARK  100  A    between atoms: _246  and  _249
REMARK  101  A    between atoms: _249  and  _250
REMARK  102  A    between atoms: _260  and  _262
REMARK  103  A    between atoms: _262  and  _263
REMARK  104  A    between atoms: _262  and  _265
REMARK  105  A    between atoms: _265  and  _266
REMARK  106  A    between atoms: _269  and  _271
REMARK  107  A    between atoms: _271  and  _272
REMARK  108  A    between atoms: _271  and  _274
REMARK  109  A    between atoms: _274  and  _275
REMARK  110  A    between atoms: _279  and  _280
REMARK  111  A    between atoms: _285  and  _287
REMARK  112  A    between atoms: _287  and  _288
REMARK  113  A    between atoms: _291  and  _293
REMARK  114  A    between atoms: _293  and  _294
REMARK  115  A    between atoms: _293  and  _296
REMARK  116  A    between atoms: _296  and  _297
REMARK  117  A    between atoms: _297  and  _298
REMARK  118  A    between atoms: _301  and  _303
REMARK  119  A    between atoms: _303  and  _304
REMARK  120  A    between atoms: _303  and  _306
REMARK  121  A    between atoms: _306  and  _307
REMARK  122  A    between atoms: _307  and  _308
REMARK  123  A    between atoms: _308  and  _310
REMARK  124  A    between atoms: _310  and  ZN_1037
REMARK  125  A    between atoms: _311  and  _313
REMARK  126  A    between atoms: _313  and  _314
REMARK  127  A    between atoms: _313  and  _316
REMARK  128  A    between atoms: _316  and  _317
REMARK  129  A    between atoms: _323  and  _325
REMARK  130  A    between atoms: _325  and  _326
REMARK  131  A    between atoms: _328  and  _330
REMARK  132  A    between atoms: _330  and  _331
REMARK  133  A    between atoms: _330  and  _333
REMARK  134  A    between atoms: _333  and  _334
REMARK  135  A    between atoms: _337  and  _339
REMARK  136  A    between atoms: _339  and  _340
REMARK  137  A    between atoms: _339  and  _342
REMARK  138  A    between atoms: _342  and  _343
REMARK  139  A    between atoms: _346  and  _348
REMARK  140  A    between atoms: _348  and  _349
REMARK  141  A    between atoms: _348  and  _351
REMARK  142  A    between atoms: _351  and  _352
REMARK  143  A    between atoms: _357  and  _359
REMARK  144  A    between atoms: _359  and  _360
REMARK  145  A    between atoms: _359  and  _362
REMARK  146  A    between atoms: _362  and  _363
REMARK  147  A    between atoms: _363  and  _365
REMARK  148  A    between atoms: _365  and  ZN_1038
REMARK  149  A    between atoms: _366  and  _368
REMARK  150  A    between atoms: _368  and  _369
REMARK  151  A    between atoms: _368  and  _371
REMARK  152  A    between atoms: _371  and  _372
REMARK  153  A    between atoms: _374  and  _376
REMARK  154  A    between atoms: _376  and  _377
REMARK  155  A    between atoms: _376  and  _379
REMARK  156  A    between atoms: _379  and  _380
REMARK  157  A    between atoms: _382  and  _384
REMARK  158  A    between atoms: _384  and  _385
REMARK  159  A    between atoms: _384  and  _387
REMARK  160  A    between atoms: _387  and  _388
REMARK  161  A    between atoms: _391  and  _393
REMARK  162  A    between atoms: _393  and  _394
REMARK  163  A    between atoms: _393  and  _396
REMARK  164  A    between atoms: _396  and  _397
REMARK  165  A    between atoms: _397  and  _398
REMARK  166  A    between atoms: _401  and  _403
REMARK  167  A    between atoms: _403  and  _404
REMARK  168  A    between atoms: _403  and  _406
REMARK  169  A    between atoms: _406  and  _407
REMARK  170  A    between atoms: _412  and  _413
REMARK  171  A    between atoms: _415  and  _417
REMARK  172  A    between atoms: _417  and  _418
REMARK  173  A    between atoms: _417  and  _420
REMARK  174  A    between atoms: _420  and  _421
REMARK  175  A    between atoms: _424  and  _426
REMARK  176  A    between atoms: _426  and  _427
REMARK  177  A    between atoms: _426  and  _429
REMARK  178  A    between atoms: _429  and  _430
REMARK  179  A    between atoms: _433  and  _435
REMARK  180  A    between atoms: _435  and  _436
REMARK  181  A    between atoms: _435  and  _438
REMARK  182  A    between atoms: _438  and  _439
REMARK  183  A    between atoms: _439  and  _440
REMARK  184  A    between atoms: _440  and  _441
REMARK  185  A    between atoms: _450  and  _452
REMARK  186  A    between atoms: _452  and  _453
REMARK  187  A    between atoms: _452  and  _455
REMARK  188  A    between atoms: _458  and  _460
REMARK  189  A    between atoms: _460  and  _461
REMARK  190  A    between atoms: _460  and  _463
REMARK  191  A    between atoms: _463  and  _464
REMARK  192  A    between atoms: _467  and  _469
REMARK  193  A    between atoms: _469  and  _470
REMARK  194  A    between atoms: _469  and  _472
REMARK  195  A    between atoms: _474  and  _476
REMARK  196  A    between atoms: _476  and  _477
REMARK  197  A    between atoms: _476  and  _479
REMARK  198  A    between atoms: _479  and  _480
REMARK  199  A    between atoms: _490  and  _492
REMARK  200  A    between atoms: _492  and  _493
REMARK  201  A    between atoms: _492  and  _495
REMARK  202  A    between atoms: _495  and  _496
REMARK  203  A    between atoms: _496  and  _497
REMARK  204  A    between atoms: _497  and  _498
REMARK  205  A    between atoms: _498  and  _499
REMARK  206  A    between atoms: _503  and  _505
REMARK  207  A    between atoms: _505  and  _506
REMARK  208  A    between atoms: _505  and  _508
REMARK  209  A    between atoms: _508  and  _509
REMARK  210  A    between atoms: _512  and  _513
REMARK  211  A    between atoms: _519  and  _520
REMARK  212  A    between atoms: _525  and  _527
REMARK  213  A    between atoms: _527  and  _528
REMARK  214  A    between atoms: _527  and  _530
REMARK  215  A    between atoms: _530  and  _531
REMARK  216  A    between atoms: _531  and  _532
REMARK  217  A    between atoms: _535  and  _537
REMARK  218  A    between atoms: _537  and  _538
REMARK  219  A    between atoms: _537  and  _540
REMARK  220  A    between atoms: _540  and  _541
REMARK  221  A    between atoms: _541  and  _542
REMARK  222  A    between atoms: _542  and  _543
REMARK  223  A    between atoms: _552  and  _554
REMARK  224  A    between atoms: _554  and  _555
REMARK  225  A    between atoms: _554  and  _557
REMARK  226  A    between atoms: _557  and  _558
REMARK  227  A    between atoms: _561  and  _563
REMARK  228  A    between atoms: _563  and  _564
REMARK  229  A    between atoms: _563  and  _566
REMARK  230  A    between atoms: _566  and  _567
REMARK  231  A    between atoms: _569  and  _571
REMARK  232  A    between atoms: _571  and  _572
REMARK  233  A    between atoms: _571  and  _574
REMARK  234  A    between atoms: _574  and  _575
REMARK  235  A    between atoms: _575  and  _576
REMARK  236  A    between atoms: _576  and  _577
REMARK  237  A    between atoms: _577  and  _578
REMARK  238  A    between atoms: _582  and  _584
REMARK  239  A    between atoms: _584  and  _585
REMARK  240  A    between atoms: _584  and  _587
REMARK  241  A    between atoms: _587  and  _588
REMARK  242  A    between atoms: _591  and  _593
REMARK  243  A    between atoms: _593  and  _594
REMARK  244  A    between atoms: _596  and  _598
REMARK  245  A    between atoms: _598  and  _599
REMARK  246  A    between atoms: _598  and  _601
REMARK  247  A    between atoms: _601  and  _602
REMARK  248  A    between atoms: _604  and  _606
REMARK  249  A    between atoms: _606  and  _607
REMARK  250  A    between atoms: _609  and  _611
REMARK  251  A    between atoms: _611  and  _612
REMARK  252  A    between atoms: _611  and  _614
REMARK  253  A    between atoms: _614  and  _615
REMARK  254  A    between atoms: _620  and  _622
REMARK  255  A    between atoms: _622  and  _623
REMARK  256  A    between atoms: _622  and  _625
REMARK  257  A    between atoms: _625  and  _626
REMARK  258  A    between atoms: _629  and  _631
REMARK  259  A    between atoms: _631  and  _632
REMARK  260  A    between atoms: _631  and  _634
REMARK  261  A    between atoms: _634  and  _635
REMARK  262  A    between atoms: _641  and  _643
REMARK  263  A    between atoms: _643  and  _644
REMARK  264  A    between atoms: _643  and  _646
REMARK  265  A    between atoms: _646  and  _647
REMARK  266  A    between atoms: _647  and  _648
REMARK  267  A    between atoms: _651  and  _653
REMARK  268  A    between atoms: _653  and  _654
REMARK  269  A    between atoms: _653  and  _656
REMARK  270  A    between atoms: _656  and  _657
REMARK  271  A    between atoms: _657  and  _658
REMARK  272  A    between atoms: _663  and  _665
REMARK  273  A    between atoms: _665  and  _666
REMARK  274  A    between atoms: _665  and  _668
REMARK  275  A    between atoms: _668  and  _669
REMARK  276  A    between atoms: _669  and  _670
REMARK  277  A    between atoms: _670  and  _671
REMARK  278  A    between atoms: _680  and  _682
REMARK  279  A    between atoms: _682  and  _683
REMARK  280  A    between atoms: _682  and  _685
REMARK  281  A    between atoms: _685  and  _686
REMARK  282  A    between atoms: _686  and  _687
REMARK  283  A    between atoms: _687  and  _688
REMARK  284  A    between atoms: _697  and  _699
REMARK  285  A    between atoms: _699  and  _700
REMARK  286  A    between atoms: _699  and  _702
REMARK  287  A    between atoms: _702  and  _703
REMARK  288  A    between atoms: _708  and  _709
REMARK  289  A    between atoms: _711  and  _713
REMARK  290  A    between atoms: _713  and  _714
REMARK  291  A    between atoms: _713  and  _716
REMARK  292  A    between atoms: _716  and  _717
REMARK  293  A    between atoms: _720  and  _722
REMARK  294  A    between atoms: _722  and  _723
REMARK  295  A    between atoms: _722  and  _725
REMARK  296  A    between atoms: _725  and  _726
REMARK  297  A    between atoms: _726  and  _727
REMARK  298  A    between atoms: _727  and  _728
REMARK  299  A    between atoms: _728  and  _729
REMARK  300  A    between atoms: _733  and  _735
REMARK  301  A    between atoms: _735  and  _736
REMARK  302  A    between atoms: _735  and  _738
REMARK  303  A    between atoms: _738  and  _739
REMARK  304  A    between atoms: _744  and  _746
REMARK  305  A    between atoms: _746  and  _747
REMARK  306  A    between atoms: _746  and  _749
REMARK  307  A    between atoms: _749  and  _750
REMARK  308  A    between atoms: _760  and  _762
REMARK  309  A    between atoms: _762  and  _763
REMARK  310  A    between atoms: _762  and  _765
REMARK  311  A    between atoms: _765  and  _766
REMARK  312  A    between atoms: _766  and  _767
REMARK  313  A    between atoms: _770  and  _772
REMARK  314  A    between atoms: _772  and  _773
REMARK  315  A    between atoms: _772  and  _775
REMARK  316  A    between atoms: _775  and  _776
REMARK  317  A    between atoms: _779  and  _781
REMARK  318  A    between atoms: _781  and  _782
REMARK  319  A    between atoms: _781  and  _784
REMARK  320  A    between atoms: _784  and  _785
REMARK  321  A    between atoms: _790  and  _792
REMARK  322  A    between atoms: _792  and  _793
REMARK  323  A    between atoms: _792  and  _795
REMARK  324  A    between atoms: _795  and  _796
REMARK  325  A    between atoms: _802  and  _804
REMARK  326  A    between atoms: _804  and  _805
REMARK  327  A    between atoms: _804  and  _807
REMARK  328  A    between atoms: _807  and  _808
REMARK  329  A    between atoms: _810  and  _812
REMARK  330  A    between atoms: _812  and  _813
REMARK  331  A    between atoms: _815  and  _817
REMARK  332  A    between atoms: _817  and  _818
REMARK  333  A    between atoms: _817  and  _820
REMARK  334  A    between atoms: _820  and  _821
REMARK  335  A    between atoms: _826  and  _827
REMARK  336  A    between atoms: _829  and  _831
REMARK  337  A    between atoms: _831  and  _832
REMARK  338  A    between atoms: _831  and  _834
REMARK  339  A    between atoms: _834  and  _835
REMARK  340  A    between atoms: _840  and  _841
REMARK  341  A    between atoms: _843  and  _845
REMARK  342  A    between atoms: _845  and  _846
REMARK  343  A    between atoms: _845  and  _848
REMARK  344  A    between atoms: _848  and  _849
REMARK  345  A    between atoms: _853  and  ZN_1037
REMARK  346  A    between atoms: _854  and  _856
REMARK  347  A    between atoms: _856  and  _857
REMARK  348  A    between atoms: _856  and  _859
REMARK  349  A    between atoms: _859  and  _860
REMARK  350  A    between atoms: _860  and  _861
REMARK  351  A    between atoms: _864  and  _866
REMARK  352  A    between atoms: _866  and  _867
REMARK  353  A    between atoms: _866  and  _869
REMARK  354  A    between atoms: _869  and  _870
REMARK  355  A    between atoms: _870  and  _871
REMARK  356  A    between atoms: _871  and  _872
REMARK  357  A    between atoms: _881  and  _883
REMARK  358  A    between atoms: _883  and  _884
REMARK  359  A    between atoms: _883  and  _886
REMARK  360  A    between atoms: _886  and  _887
REMARK  361  A    between atoms: _887  and  _888
REMARK  362  A    between atoms: _888  and  _889
REMARK  363  A    between atoms: _889  and  _890
REMARK  364  A    between atoms: _894  and  _896
REMARK  365  A    between atoms: _896  and  _897
REMARK  366  A    between atoms: _896  and  _899
REMARK  367  A    between atoms: _899  and  _900
REMARK  368  A    between atoms: _905  and  _906
REMARK  369  A    between atoms: _908  and  _910
REMARK  370  A    between atoms: _910  and  _911
REMARK  371  A    between atoms: _910  and  _913
REMARK  372  A    between atoms: _913  and  _914
REMARK  373  A    between atoms: _914  and  _915
REMARK  374  A    between atoms: _915  and  _916
REMARK  375  A    between atoms: _916  and  _917
REMARK  376  A    between atoms: _921  and  _923
REMARK  377  A    between atoms: _923  and  _924
REMARK  378  A    between atoms: _923  and  _926
REMARK  379  A    between atoms: _926  and  _927
REMARK  380  A    between atoms: _932  and  _933
REMARK  381  A    between atoms: _935  and  _937
REMARK  382  A    between atoms: _937  and  _938
REMARK  383  A    between atoms: _937  and  _940
REMARK  384  A    between atoms: _940  and  _941
REMARK  385  A    between atoms: _946  and  _947
REMARK  386  A    between atoms: _949  and  _951
REMARK  387  A    between atoms: _951  and  _952
REMARK  388  A    between atoms: _956  and  _957
REMARK  389  A    between atoms: _962  and  _964
REMARK  390  A    between atoms: _964  and  _965
REMARK  391  A    between atoms: _964  and  _967
REMARK  392  A    between atoms: _967  and  _968
REMARK  393  A    between atoms: _970  and  _972
REMARK  394  A    between atoms: _972  and  _973
REMARK  395  A    between atoms: _972  and  _975
REMARK  396  A    between atoms: _975  and  _976
REMARK  397  A    between atoms: _981  and  _983
REMARK  398  A    between atoms: _983  and  _984
REMARK  399  A    between atoms: _983  and  _986
REMARK  400  A    between atoms: _986  and  _987
REMARK  401  A    between atoms: _987  and  _988
REMARK  402  A    between atoms: _988  and  _989
REMARK  403  A    between atoms: _989  and  _990
REMARK  404  A    between atoms: _994  and  _996
REMARK  405  A    between atoms: _996  and  _997
REMARK  406  A    between atoms: _996  and  _999
REMARK  407  A    between atoms: _999  and  _1000
REMARK  408  A    between atoms: _1005  and  _1006
REMARK  409  A    between atoms: _1008  and  _1010
REMARK  410  A    between atoms: _1010  and  _1011
REMARK  411  A    between atoms: _1014  and  _1016
REMARK  412  A    between atoms: _1016  and  _1017
REMARK  413  A    between atoms: _1019  and  _1021
REMARK  414  A    between atoms: _1021  and  _1022
REMARK  415  A    between atoms: _1021  and  _1024
REMARK  416  A    between atoms: _1024  and  _1025
REMARK  417  A    between atoms: _1025  and  _1026
REMARK  418  A    between atoms: _1029  and  _1031
REMARK  419  A    between atoms: _1031  and  _1032
REMARK  420  A    between atoms: _1031  and  _1034
REMARK  421  A    between atoms: _1034  and  _1035
REMARK                            x       y       z     vdW  Elec       q    Type
REMARK                         _______ _______ _______ _____ _____    ______ ____
ROOT
ATOM      1  O   HOH     1      25.037  42.767  43.004  0.00  0.00    +0.000 OA
ENDROOT
TORSDOF 0
REMARK  Name = ../refined-set-2016/2xef/2xef_pocket.pdb
REMARK  421 active torsions:
REMARK  status: ('A' for Active; 'I' for Inactive)
REMARK    1  A    between atoms: _1  and  _3
REMARK    2  A    between atoms: _3  and  _4
REMARK    3  A    between atoms: _7  and  _9
REMARK    4  A    between atoms: _9  and  _10
REMARK    5  A    between atoms: _9  and  _12
REMARK    6  A    between atoms: _12  and  _13
REMARK    7  A    between atoms: _19  and  _21
REMARK    8  A    between atoms: _21  and  _22
REMARK    9  A    between atoms: _21  and  _24
REMARK   10  A    between atoms: _24  and  _25
REMARK   11  A    between atoms: _30  and  _31
REMARK   12  A    between atoms: _33  and  _35
REMARK   13  A    between atoms: _35  and  _36
REMARK   14  A    between atoms: _38  and  _40
REMARK   15  A    between atoms: _40  and  _41
REMARK   16  A    between atoms: _40  and  _43
REMARK   17  A    between atoms: _43  and  _44
REMARK   18  A    between atoms: _44  and  _45
REMARK   19  A    between atoms: _45  and  _46
REMARK   20  A    between atoms: _46  and  _47
REMARK   21  A    between atoms: _51  and  _53
REMARK   22  A    between atoms: _53  and  _54
REMARK   23  A    between atoms: _53  and  _56
REMARK   24  A    between atoms: _59  and  _61
REMARK   25  A    between atoms: _61  and  _62
REMARK   26  A    between atoms: _61  and  _64
REMARK   27  A    between atoms: _64  and  _65
REMARK   28  A    between atoms: _71  and  _73
REMARK   29  A    between atoms: _73  and  _74
REMARK   30  A    between atoms: _73  and  _76
REMARK   31  A    between atoms: _76  and  _77
REMARK   32  A    between atoms: _77  and  _78
REMARK   33  A    between atoms: _78  and  _79
REMARK   34  A    between atoms: _88  and  _90
REMARK   35  A    between atoms: _90  and  _91
REMARK   36  A    between atoms: _93  and  _95
REMARK   37  A    between atoms: _95  and  _96
REMARK   38  A    between atoms: _95  and  _98
REMARK   39  A    between atoms: _98  and  _99
REMARK   40  A    between atoms: _99  and  _100
REMARK   41  A    between atoms: _100  and  _101
REMARK   42  A    between atoms: _101  and  _102
REMARK   43  A    between atoms: _106  and  _108
REMARK   44  A    between atoms: _108  and  _109
REMARK   45  A    between atoms: _108  and  _111
REMARK   46  A    between atoms: _111  and  _112
REMARK   47  A    between atoms: _117  and  _118
REMARK   48  A    between atoms: _120  and  _122
REMARK   49  A    between atoms: _122  and  _123
REMARK   50  A    between atoms: _122  and  _125
REMARK   51  A    between atoms: _125  and  _126
REMARK   52  A    between atoms: _126  and  _127
REMARK   53  A    between atoms: _132  and  _134
REMARK   54  A    between atoms: _134  and  _135
REMARK   55  A    between atoms: _134  and  _137
REMARK   56  A    between atoms: _137  and  _138
REMARK   57  A    between atoms: _138  and  _139
REMARK   58  A    between atoms: _139  and  _140
REMARK   59  A    between atoms: _149  and  _151
REMARK   60  A    between atoms: _151  and  _152
REMARK   61  A    between atoms: _154  and  _156
REMARK   62  A    between atoms: _156  and  _157
REMARK   63  A    between atoms: _156  and  _159
REMARK   64  A    between atoms: _159  and  _160
REMARK   65  A    between atoms: _165  and  _167
REMARK   66  A    between atoms: _167  and  _168
REMARK   67  A    between atoms: _167  and  _170
REMARK   68  A    between atoms: _170  and  _171
REMARK   69  A    between atoms: _174  and  _176
REMARK   70  A    between atoms: _176  and  _177
REMARK   71  A    between atoms: _176  and  _179
REMARK   72  A    between atoms: _179  and  _180
REMARK   73  A    between atoms: _183  and  _185
REMARK   74  A    between atoms: _185  and  _186
REMARK   75  A    between atoms: _185  and  _188
REMARK   76  A    between atoms: _188  and  _189
REMARK   77  A    between atoms: _194  and  _196
REMARK   78  A    between atoms: _196  and  _197
REMARK   79  A    between atoms: _196  and  _199
REMARK   80  A    between atoms: _199  and  _200
REMARK   81  A    between atoms: _203  and  _205
REMARK   82  A    between atoms: _205  and  _206
REMARK   83  A    between atoms: _205  and  _208
REMARK   84  A    between atoms: _208  and  _209
REMARK   85  A    between atoms: _214  and  _216
REMARK   86  A    between atoms: _216  and  _217
REMARK   87  A    between atoms: _219  and  _221
REMARK   88  A    between atoms: _221  and  _222
REMARK   89  A    between atoms: _224  and  _226
REMARK   90  A    between atoms: _226  and  _227
REMARK   91  A    between atoms: _226  and  _229
REMARK   92  A    between atoms: _229  and  _230
REMARK   93  A    between atoms: _234  and  ZN_1038
REMARK   94  A    between atoms: _235  and  _237
REMARK   95  A    between atoms: _237  and  _238
REMARK   96  A    between atoms: _237  and  _240
REMARK   97  A    between atoms: _240  and  _241
REMARK   98  A    between atoms: _244  and  _246
REMARK   99  A    between atoms: _246  and  _247
REMARK  100  A    between atoms: _246  and  _249
REMARK  101  A    between atoms: _249  and  _250
REMARK  102  A    between atoms: _260  and  _262
REMARK  103  A    between atoms: _262  and  _263
REMARK  104  A    between atoms: _262  and  _265
REMARK  105  A    between atoms: _265  and  _266
REMARK  106  A    between atoms: _269  and  _271
REMARK  107  A    between atoms: _271  and  _272
REMARK  108  A    between atoms: _271  and  _274
REMARK  109  A    between atoms: _274  and  _275
REMARK  110  A    between atoms: _279  and  _280
REMARK  111  A    between atoms: _285  and  _287
REMARK  112  A    between atoms: _287  and  _288
REMARK  113  A    between atoms: _291  and  _293
REMARK  114  A    between atoms: _293  and  _294
REMARK  115  A    between atoms: _293  and  _296
REMARK  116  A    between atoms: _296  and  _297
REMARK  117  A    between atoms: _297  and  _298
REMARK  118  A    between atoms: _301  and  _303
REMARK  119  A    between atoms: _303  and  _304
REMARK  120  A    between atoms: _303  and  _306
REMARK  121  A    between atoms: _306  and  _307
REMARK  122  A    between atoms: _307  and  _308
REMARK  123  A    between atoms: _308  and  _310
REMARK  124  A    between atoms: _310  and  ZN_1037
REMARK  125  A    between atoms: _311  and  _313
REMARK  126  A    between atoms: _313  and  _314
REMARK  127  A    between atoms: _313  and  _316
REMARK  128  A    between atoms: _316  and  _317
REMARK  129  A    between atoms: _323  and  _325
REMARK  130  A    between atoms: _325  and  _326
REMARK  131  A    between atoms: _328  and  _330
REMARK  132  A    between atoms: _330  and  _331
REMARK  133  A    between atoms: _330  and  _333
REMARK  134  A    between atoms: _333  and  _334
REMARK  135  A    between atoms: _337  and  _339
REMARK  136  A    between atoms: _339  and  _340
REMARK  137  A    between atoms: _339  and  _342
REMARK  138  A    between atoms: _342  and  _343
REMARK  139  A    between atoms: _346  and  _348
REMARK  140  A    between atoms: _348  and  _349
REMARK  141  A    between atoms: _348  and  _351
REMARK  142  A    between atoms: _351  and  _352
REMARK  143  A    between atoms: _357  and  _359
REMARK  144  A    between atoms: _359  and  _360
REMARK  145  A    between atoms: _359  and  _362
REMARK  146  A    between atoms: _362  and  _363
REMARK  147  A    between atoms: _363  and  _365
REMARK  148  A    between atoms: _365  and  ZN_1038
REMARK  149  A    between atoms: _366  and  _368
REMARK  150  A    between atoms: _368  and  _369
REMARK  151  A    between atoms: _368  and  _371
REMARK  152  A    between atoms: _371  and  _372
REMARK  153  A    between atoms: _374  and  _376
REMARK  154  A    between atoms: _376  and  _377
REMARK  155  A    between atoms: _376  and  _379
REMARK  156  A    between atoms: _379  and  _380
REMARK  157  A    between atoms: _382  and  _384
REMARK  158  A    between atoms: _384  and  _385
REMARK  159  A    between atoms: _384  and  _387
REMARK  160  A    between atoms: _387  and  _388
REMARK  161  A    between atoms: _391  and  _393
REMARK  162  A    between atoms: _393  and  _394
REMARK  163  A    between atoms: _393  and  _396
REMARK  164  A    between atoms: _396  and  _397
REMARK  165  A    between atoms: _397  and  _398
REMARK  166  A    between atoms: _401  and  _403
REMARK  167  A    between atoms: _403  and  _404
REMARK  168  A    between atoms: _403  and  _406
REMARK  169  A    between atoms: _406  and  _407
REMARK  170  A    between atoms: _412  and  _413
REMARK  171  A    between atoms: _415  and  _417
REMARK  172  A    between atoms: _417  and  _418
REMARK  173  A    between atoms: _417  and  _420
REMARK  174  A    between atoms: _420  and  _421
REMARK  175  A    between atoms: _424  and  _426
REMARK  176  A    between atoms: _426  and  _427
REMARK  177  A    between atoms: _426  and  _429
REMARK  178  A    between atoms: _429  and  _430
REMARK  179  A    between atoms: _433  and  _435
REMARK  180  A    between atoms: _435  and  _436
REMARK  181  A    between atoms: _435  and  _438
REMARK  182  A    between atoms: _438  and  _439
REMARK  183  A    between atoms: _439  and  _440
REMARK  184  A    between atoms: _440  and  _441
REMARK  185  A    between atoms: _450  and  _452
REMARK  186  A    between atoms: _452  and  _453
REMARK  187  A    between atoms: _452  and  _455
REMARK  188  A    between atoms: _458  and  _460
REMARK  189  A    between atoms: _460  and  _461
REMARK  190  A    between atoms: _460  and  _463
REMARK  191  A    between atoms: _463  and  _464
REMARK  192  A    between atoms: _467  and  _469
REMARK  193  A    between atoms: _469  and  _470
REMARK  194  A    between atoms: _469  and  _472
REMARK  195  A    between atoms: _474  and  _476
REMARK  196  A    between atoms: _476  and  _477
REMARK  197  A    between atoms: _476  and  _479
REMARK  198  A    between atoms: _479  and  _480
REMARK  199  A    between atoms: _490  and  _492
REMARK  200  A    between atoms: _492  and  _493
REMARK  201  A    between atoms: _492  and  _495
REMARK  202  A    between atoms: _495  and  _496
REMARK  203  A    between atoms: _496  and  _497
REMARK  204  A    between atoms: _497  and  _498
REMARK  205  A    between atoms: _498  and  _499
REMARK  206  A    between atoms: _503  and  _505
REMARK  207  A    between atoms: _505  and  _506
REMARK  208  A    between atoms: _505  and  _508
REMARK  209  A    between atoms: _508  and  _509
REMARK  210  A    between atoms: _512  and  _513
REMARK  211  A    between atoms: _519  and  _520
REMARK  212  A    between atoms: _525  and  _527
REMARK  213  A    between atoms: _527  and  _528
REMARK  214  A    between atoms: _527  and  _530
REMARK  215  A    between atoms: _530  and  _531
REMARK  216  A    between atoms: _531  and  _532
REMARK  217  A    between atoms: _535  and  _537
REMARK  218  A    between atoms: _537  and  _538
REMARK  219  A    between atoms: _537  and  _540
REMARK  220  A    between atoms: _540  and  _541
REMARK  221  A    between atoms: _541  and  _542
REMARK  222  A    between atoms: _542  and  _543
REMARK  223  A    between atoms: _552  and  _554
REMARK  224  A    between atoms: _554  and  _555
REMARK  225  A    between atoms: _554  and  _557
REMARK  226  A    between atoms: _557  and  _558
REMARK  227  A    between atoms: _561  and  _563
REMARK  228  A    between atoms: _563  and  _564
REMARK  229  A    between atoms: _563  and  _566
REMARK  230  A    between atoms: _566  and  _567
REMARK  231  A    between atoms: _569  and  _571
REMARK  232  A    between atoms: _571  and  _572
REMARK  233  A    between atoms: _571  and  _574
REMARK  234  A    between atoms: _574  and  _575
REMARK  235  A    between atoms: _575  and  _576
REMARK  236  A    between atoms: _576  and  _577
REMARK  237  A    between atoms: _577  and  _578
REMARK  238  A    between atoms: _582  and  _584
REMARK  239  A    between atoms: _584  and  _585
REMARK  240  A    between atoms: _584  and  _587
REMARK  241  A    between atoms: _587  and  _588
REMARK  242  A    between atoms: _591  and  _593
REMARK  243  A    between atoms: _593  and  _594
REMARK  244  A    between atoms: _596  and  _598
REMARK  245  A    between atoms: _598  and  _599
REMARK  246  A    between atoms: _598  and  _601
REMARK  247  A    between atoms: _601  and  _602
REMARK  248  A    between atoms: _604  and  _606
REMARK  249  A    between atoms: _606  and  _607
REMARK  250  A    between atoms: _609  and  _611
REMARK  251  A    between atoms: _611  and  _612
REMARK  252  A    between atoms: _611  and  _614
REMARK  253  A    between atoms: _614  and  _615
REMARK  254  A    between atoms: _620  and  _622
REMARK  255  A    between atoms: _622  and  _623
REMARK  256  A    between atoms: _622  and  _625
REMARK  257  A    between atoms: _625  and  _626
REMARK  258  A    between atoms: _629  and  _631
REMARK  259  A    between atoms: _631  and  _632
REMARK  260  A    between atoms: _631  and  _634
REMARK  261  A    between atoms: _634  and  _635
REMARK  262  A    between atoms: _641  and  _643
REMARK  263  A    between atoms: _643  and  _644
REMARK  264  A    between atoms: _643  and  _646
REMARK  265  A    between atoms: _646  and  _647
REMARK  266  A    between atoms: _647  and  _648
REMARK  267  A    between atoms: _651  and  _653
REMARK  268  A    between atoms: _653  and  _654
REMARK  269  A    between atoms: _653  and  _656
REMARK  270  A    between atoms: _656  and  _657
REMARK  271  A    between atoms: _657  and  _658
REMARK  272  A    between atoms: _663  and  _665
REMARK  273  A    between atoms: _665  and  _666
REMARK  274  A    between atoms: _665  and  _668
REMARK  275  A    between atoms: _668  and  _669
REMARK  276  A    between atoms: _669  and  _670
REMARK  277  A    between atoms: _670  and  _671
REMARK  278  A    between atoms: _680  and  _682
REMARK  279  A    between atoms: _682  and  _683
REMARK  280  A    between atoms: _682  and  _685
REMARK  281  A    between atoms: _685  and  _686
REMARK  282  A    between atoms: _686  and  _687
REMARK  283  A    between atoms: _687  and  _688
REMARK  284  A    between atoms: _697  and  _699
REMARK  285  A    between atoms: _699  and  _700
REMARK  286  A    between atoms: _699  and  _702
REMARK  287  A    between atoms: _702  and  _703
REMARK  288  A    between atoms: _708  and  _709
REMARK  289  A    between atoms: _711  and  _713
REMARK  290  A    between atoms: _713  and  _714
REMARK  291  A    between atoms: _713  and  _716
REMARK  292  A    between atoms: _716  and  _717
REMARK  293  A    between atoms: _720  and  _722
REMARK  294  A    between atoms: _722  and  _723
REMARK  295  A    between atoms: _722  and  _725
REMARK  296  A    between atoms: _725  and  _726
REMARK  297  A    between atoms: _726  and  _727
REMARK  298  A    between atoms: _727  and  _728
REMARK  299  A    between atoms: _728  and  _729
REMARK  300  A    between atoms: _733  and  _735
REMARK  301  A    between atoms: _735  and  _736
REMARK  302  A    between atoms: _735  and  _738
REMARK  303  A    between atoms: _738  and  _739
REMARK  304  A    between atoms: _744  and  _746
REMARK  305  A    between atoms: _746  and  _747
REMARK  306  A    between atoms: _746  and  _749
REMARK  307  A    between atoms: _749  and  _750
REMARK  308  A    between atoms: _760  and  _762
REMARK  309  A    between atoms: _762  and  _763
REMARK  310  A    between atoms: _762  and  _765
REMARK  311  A    between atoms: _765  and  _766
REMARK  312  A    between atoms: _766  and  _767
REMARK  313  A    between atoms: _770  and  _772
REMARK  314  A    between atoms: _772  and  _773
REMARK  315  A    between atoms: _772  and  _775
REMARK  316  A    between atoms: _775  and  _776
REMARK  317  A    between atoms: _779  and  _781
REMARK  318  A    between atoms: _781  and  _782
REMARK  319  A    between atoms: _781  and  _784
REMARK  320  A    between atoms: _784  and  _785
REMARK  321  A    between atoms: _790  and  _792
REMARK  322  A    between atoms: _792  and  _793
REMARK  323  A    between atoms: _792  and  _795
REMARK  324  A    between atoms: _795  and  _796
REMARK  325  A    between atoms: _802  and  _804
REMARK  326  A    between atoms: _804  and  _805
REMARK  327  A    between atoms: _804  and  _807
REMARK  328  A    between atoms: _807  and  _808
REMARK  329  A    between atoms: _810  and  _812
REMARK  330  A    between atoms: _812  and  _813
REMARK  331  A    between atoms: _815  and  _817
REMARK  332  A    between atoms: _817  and  _818
REMARK  333  A    between atoms: _817  and  _820
REMARK  334  A    between atoms: _820  and  _821
REMARK  335  A    between atoms: _826  and  _827
REMARK  336  A    between atoms: _829  and  _831
REMARK  337  A    between atoms: _831  and  _832
REMARK  338  A    between atoms: _831  and  _834
REMARK  339  A    between atoms: _834  and  _835
REMARK  340  A    between atoms: _840  and  _841
REMARK  341  A    between atoms: _843  and  _845
REMARK  342  A    between atoms: _845  and  _846
REMARK  343  A    between atoms: _845  and  _848
REMARK  344  A    between atoms: _848  and  _849
REMARK  345  A    between atoms: _853  and  ZN_1037
REMARK  346  A    between atoms: _854  and  _856
REMARK  347  A    between atoms: _856  and  _857
REMARK  348  A    between atoms: _856  and  _859
REMARK  349  A    between atoms: _859  and  _860
REMARK  350  A    between atoms: _860  and  _861
REMARK  351  A    between atoms: _864  and  _866
REMARK  352  A    between atoms: _866  and  _867
REMARK  353  A    between atoms: _866  and  _869
REMARK  354  A    between atoms: _869  and  _870
REMARK  355  A    between atoms: _870  and  _871
REMARK  356  A    between atoms: _871  and  _872
REMARK  357  A    between atoms: _881  and  _883
REMARK  358  A    between atoms: _883  and  _884
REMARK  359  A    between atoms: _883  and  _886
REMARK  360  A    between atoms: _886  and  _887
REMARK  361  A    between atoms: _887  and  _888
REMARK  362  A    between atoms: _888  and  _889
REMARK  363  A    between atoms: _889  and  _890
REMARK  364  A    between atoms: _894  and  _896
REMARK  365  A    between atoms: _896  and  _897
REMARK  366  A    between atoms: _896  and  _899
REMARK  367  A    between atoms: _899  and  _900
REMARK  368  A    between atoms: _905  and  _906
REMARK  369  A    between atoms: _908  and  _910
REMARK  370  A    between atoms: _910  and  _911
REMARK  371  A    between atoms: _910  and  _913
REMARK  372  A    between atoms: _913  and  _914
REMARK  373  A    between atoms: _914  and  _915
REMARK  374  A    between atoms: _915  and  _916
REMARK  375  A    between atoms: _916  and  _917
REMARK  376  A    between atoms: _921  and  _923
REMARK  377  A    between atoms: _923  and  _924
REMARK  378  A    between atoms: _923  and  _926
REMARK  379  A    between atoms: _926  and  _927
REMARK  380  A    between atoms: _932  and  _933
REMARK  381  A    between atoms: _935  and  _937
REMARK  382  A    between atoms: _937  and  _938
REMARK  383  A    between atoms: _937  and  _940
REMARK  384  A    between atoms: _940  and  _941
REMARK  385  A    between atoms: _946  and  _947
REMARK  386  A    between atoms: _949  and  _951
REMARK  387  A    between atoms: _951  and  _952
REMARK  388  A    between atoms: _956  and  _957
REMARK  389  A    between atoms: _962  and  _964
REMARK  390  A    between atoms: _964  and  _965
REMARK  391  A    between atoms: _964  and  _967
REMARK  392  A    between atoms: _967  and  _968
REMARK  393  A    between atoms: _970  and  _972
REMARK  394  A    between atoms: _972  and  _973
REMARK  395  A    between atoms: _972  and  _975
REMARK  396  A    between atoms: _975  and  _976
REMARK  397  A    between atoms: _981  and  _983
REMARK  398  A    between atoms: _983  and  _984
REMARK  399  A    between atoms: _983  and  _986
REMARK  400  A    between atoms: _986  and  _987
REMARK  401  A    between atoms: _987  and  _988
REMARK  402  A    between atoms: _988  and  _989
REMARK  403  A    between atoms: _989  and  _990
REMARK  404  A    between atoms: _994  and  _996
REMARK  405  A    between atoms: _996  and  _997
REMARK  406  A    between atoms: _996  and  _999
REMARK  407  A    between atoms: _999  and  _1000
REMARK  408  A    between atoms: _1005  and  _1006
REMARK  409  A    between atoms: _1008  and  _1010
REMARK  410  A    between atoms: _1010  and  _1011
REMARK  411  A    between atoms: _1014  and  _1016
REMARK  412  A    between atoms: _1016  and  _1017
REMARK  413  A    between atoms: _1019  and  _1021
REMARK  414  A    between atoms: _1021  and  _1022
REMARK  415  A    between atoms: _1021  and  _1024
REMARK  416  A    between atoms: _1024  and  _1025
REMARK  417  A    between atoms: _1025  and  _1026
REMARK  418  A    between atoms: _1029  and  _1031
REMARK  419  A    between atoms: _1031  and  _1032
REMARK  420  A    between atoms: _1031  and  _1034
REMARK  421  A    between atoms: _1034  and  _1035
REMARK                            x       y       z     vdW  Elec       q    Type
REMARK                         _______ _______ _______ _____ _____    ______ ____
ROOT
ATOM      1  O   HOH     1      19.230  36.115  43.121  0.00  0.00    +0.000 OA
ENDROOT
TORSDOF 0
REMARK  Name = ../refined-set-2016/2xef/2xef_pocket.pdb
REMARK  421 active torsions:
REMARK  status: ('A' for Active; 'I' for Inactive)
REMARK    1  A    between atoms: _1  and  _3
REMARK    2  A    between atoms: _3  and  _4
REMARK    3  A    between atoms: _7  and  _9
REMARK    4  A    between atoms: _9  and  _10
REMARK    5  A    between atoms: _9  and  _12
REMARK    6  A    between atoms: _12  and  _13
REMARK    7  A    between atoms: _19  and  _21
REMARK    8  A    between atoms: _21  and  _22
REMARK    9  A    between atoms: _21  and  _24
REMARK   10  A    between atoms: _24  and  _25
REMARK   11  A    between atoms: _30  and  _31
REMARK   12  A    between atoms: _33  and  _35
REMARK   13  A    between atoms: _35  and  _36
REMARK   14  A    between atoms: _38  and  _40
REMARK   15  A    between atoms: _40  and  _41
REMARK   16  A    between atoms: _40  and  _43
REMARK   17  A    between atoms: _43  and  _44
REMARK   18  A    between atoms: _44  and  _45
REMARK   19  A    between atoms: _45  and  _46
REMARK   20  A    between atoms: _46  and  _47
REMARK   21  A    between atoms: _51  and  _53
REMARK   22  A    between atoms: _53  and  _54
REMARK   23  A    between atoms: _53  and  _56
REMARK   24  A    between atoms: _59  and  _61
REMARK   25  A    between atoms: _61  and  _62
REMARK   26  A    between atoms: _61  and  _64
REMARK   27  A    between atoms: _64  and  _65
REMARK   28  A    between atoms: _71  and  _73
REMARK   29  A    between atoms: _73  and  _74
REMARK   30  A    between atoms: _73  and  _76
REMARK   31  A    between atoms: _76  and  _77
REMARK   32  A    between atoms: _77  and  _78
REMARK   33  A    between atoms: _78  and  _79
REMARK   34  A    between atoms: _88  and  _90
REMARK   35  A    between atoms: _90  and  _91
REMARK   36  A    between atoms: _93  and  _95
REMARK   37  A    between atoms: _95  and  _96
REMARK   38  A    between atoms: _95  and  _98
REMARK   39  A    between atoms: _98  and  _99
REMARK   40  A    between atoms: _99  and  _100
REMARK   41  A    between atoms: _100  and  _101
REMARK   42  A    between atoms: _101  and  _102
REMARK   43  A    between atoms: _106  and  _108
REMARK   44  A    between atoms: _108  and  _109
REMARK   45  A    between atoms: _108  and  _111
REMARK   46  A    between atoms: _111  and  _112
REMARK   47  A    between atoms: _117  and  _118
REMARK   48  A    between atoms: _120  and  _122
REMARK   49  A    between atoms: _122  and  _123
REMARK   50  A    between atoms: _122  and  _125
REMARK   51  A    between atoms: _125  and  _126
REMARK   52  A    between atoms: _126  and  _127
REMARK   53  A    between atoms: _132  and  _134
REMARK   54  A    between atoms: _134  and  _135
REMARK   55  A    between atoms: _134  and  _137
REMARK   56  A    between atoms: _137  and  _138
REMARK   57  A    between atoms: _138  and  _139
REMARK   58  A    between atoms: _139  and  _140
REMARK   59  A    between atoms: _149  and  _151
REMARK   60  A    between atoms: _151  and  _152
REMARK   61  A    between atoms: _154  and  _156
REMARK   62  A    between atoms: _156  and  _157
REMARK   63  A    between atoms: _156  and  _159
REMARK   64  A    between atoms: _159  and  _160
REMARK   65  A    between atoms: _165  and  _167
REMARK   66  A    between atoms: _167  and  _168
REMARK   67  A    between atoms: _167  and  _170
REMARK   68  A    between atoms: _170  and  _171
REMARK   69  A    between atoms: _174  and  _176
REMARK   70  A    between atoms: _176  and  _177
REMARK   71  A    between atoms: _176  and  _179
REMARK   72  A    between atoms: _179  and  _180
REMARK   73  A    between atoms: _183  and  _185
REMARK   74  A    between atoms: _185  and  _186
REMARK   75  A    between atoms: _185  and  _188
REMARK   76  A    between atoms: _188  and  _189
REMARK   77  A    between atoms: _194  and  _196
REMARK   78  A    between atoms: _196  and  _197
REMARK   79  A    between atoms: _196  and  _199
REMARK   80  A    between atoms: _199  and  _200
REMARK   81  A    between atoms: _203  and  _205
REMARK   82  A    between atoms: _205  and  _206
REMARK   83  A    between atoms: _205  and  _208
REMARK   84  A    between atoms: _208  and  _209
REMARK   85  A    between atoms: _214  and  _216
REMARK   86  A    between atoms: _216  and  _217
REMARK   87  A    between atoms: _219  and  _221
REMARK   88  A    between atoms: _221  and  _222
REMARK   89  A    between atoms: _224  and  _226
REMARK   90  A    between atoms: _226  and  _227
REMARK   91  A    between atoms: _226  and  _229
REMARK   92  A    between atoms: _229  and  _230
REMARK   93  A    between atoms: _234  and  ZN_1038
REMARK   94  A    between atoms: _235  and  _237
REMARK   95  A    between atoms: _237  and  _238
REMARK   96  A    between atoms: _237  and  _240
REMARK   97  A    between atoms: _240  and  _241
REMARK   98  A    between atoms: _244  and  _246
REMARK   99  A    between atoms: _246  and  _247
REMARK  100  A    between atoms: _246  and  _249
REMARK  101  A    between atoms: _249  and  _250
REMARK  102  A    between atoms: _260  and  _262
REMARK  103  A    between atoms: _262  and  _263
REMARK  104  A    between atoms: _262  and  _265
REMARK  105  A    between atoms: _265  and  _266
REMARK  106  A    between atoms: _269  and  _271
REMARK  107  A    between atoms: _271  and  _272
REMARK  108  A    between atoms: _271  and  _274
REMARK  109  A    between atoms: _274  and  _275
REMARK  110  A    between atoms: _279  and  _280
REMARK  111  A    between atoms: _285  and  _287
REMARK  112  A    between atoms: _287  and  _288
REMARK  113  A    between atoms: _291  and  _293
REMARK  114  A    between atoms: _293  and  _294
REMARK  115  A    between atoms: _293  and  _296
REMARK  116  A    between atoms: _296  and  _297
REMARK  117  A    between atoms: _297  and  _298
REMARK  118  A    between atoms: _301  and  _303
REMARK  119  A    between atoms: _303  and  _304
REMARK  120  A    between atoms: _303  and  _306
REMARK  121  A    between atoms: _306  and  _307
REMARK  122  A    between atoms: _307  and  _308
REMARK  123  A    between atoms: _308  and  _310
REMARK  124  A    between atoms: _310  and  ZN_1037
REMARK  125  A    between atoms: _311  and  _313
REMARK  126  A    between atoms: _313  and  _314
REMARK  127  A    between atoms: _313  and  _316
REMARK  128  A    between atoms: _316  and  _317
REMARK  129  A    between atoms: _323  and  _325
REMARK  130  A    between atoms: _325  and  _326
REMARK  131  A    between atoms: _328  and  _330
REMARK  132  A    between atoms: _330  and  _331
REMARK  133  A    between atoms: _330  and  _333
REMARK  134  A    between atoms: _333  and  _334
REMARK  135  A    between atoms: _337  and  _339
REMARK  136  A    between atoms: _339  and  _340
REMARK  137  A    between atoms: _339  and  _342
REMARK  138  A    between atoms: _342  and  _343
REMARK  139  A    between atoms: _346  and  _348
REMARK  140  A    between atoms: _348  and  _349
REMARK  141  A    between atoms: _348  and  _351
REMARK  142  A    between atoms: _351  and  _352
REMARK  143  A    between atoms: _357  and  _359
REMARK  144  A    between atoms: _359  and  _360
REMARK  145  A    between atoms: _359  and  _362
REMARK  146  A    between atoms: _362  and  _363
REMARK  147  A    between atoms: _363  and  _365
REMARK  148  A    between atoms: _365  and  ZN_1038
REMARK  149  A    between atoms: _366  and  _368
REMARK  150  A    between atoms: _368  and  _369
REMARK  151  A    between atoms: _368  and  _371
REMARK  152  A    between atoms: _371  and  _372
REMARK  153  A    between atoms: _374  and  _376
REMARK  154  A    between atoms: _376  and  _377
REMARK  155  A    between atoms: _376  and  _379
REMARK  156  A    between atoms: _379  and  _380
REMARK  157  A    between atoms: _382  and  _384
REMARK  158  A    between atoms: _384  and  _385
REMARK  159  A    between atoms: _384  and  _387
REMARK  160  A    between atoms: _387  and  _388
REMARK  161  A    between atoms: _391  and  _393
REMARK  162  A    between atoms: _393  and  _394
REMARK  163  A    between atoms: _393  and  _396
REMARK  164  A    between atoms: _396  and  _397
REMARK  165  A    between atoms: _397  and  _398
REMARK  166  A    between atoms: _401  and  _403
REMARK  167  A    between atoms: _403  and  _404
REMARK  168  A    between atoms: _403  and  _406
REMARK  169  A    between atoms: _406  and  _407
REMARK  170  A    between atoms: _412  and  _413
REMARK  171  A    between atoms: _415  and  _417
REMARK  172  A    between atoms: _417  and  _418
REMARK  173  A    between atoms: _417  and  _420
REMARK  174  A    between atoms: _420  and  _421
REMARK  175  A    between atoms: _424  and  _426
REMARK  176  A    between atoms: _426  and  _427
REMARK  177  A    between atoms: _426  and  _429
REMARK  178  A    between atoms: _429  and  _430
REMARK  179  A    between atoms: _433  and  _435
REMARK  180  A    between atoms: _435  and  _436
REMARK  181  A    between atoms: _435  and  _438
REMARK  182  A    between atoms: _438  and  _439
REMARK  183  A    between atoms: _439  and  _440
REMARK  184  A    between atoms: _440  and  _441
REMARK  185  A    between atoms: _450  and  _452
REMARK  186  A    between atoms: _452  and  _453
REMARK  187  A    between atoms: _452  and  _455
REMARK  188  A    between atoms: _458  and  _460
REMARK  189  A    between atoms: _460  and  _461
REMARK  190  A    between atoms: _460  and  _463
REMARK  191  A    between atoms: _463  and  _464
REMARK  192  A    between atoms: _467  and  _469
REMARK  193  A    between atoms: _469  and  _470
REMARK  194  A    between atoms: _469  and  _472
REMARK  195  A    between atoms: _474  and  _476
REMARK  196  A    between atoms: _476  and  _477
REMARK  197  A    between atoms: _476  and  _479
REMARK  198  A    between atoms: _479  and  _480
REMARK  199  A    between atoms: _490  and  _492
REMARK  200  A    between atoms: _492  and  _493
REMARK  201  A    between atoms: _492  and  _495
REMARK  202  A    between atoms: _495  and  _496
REMARK  203  A    between atoms: _496  and  _497
REMARK  204  A    between atoms: _497  and  _498
REMARK  205  A    between atoms: _498  and  _499
REMARK  206  A    between atoms: _503  and  _505
REMARK  207  A    between atoms: _505  and  _506
REMARK  208  A    between atoms: _505  and  _508
REMARK  209  A    between atoms: _508  and  _509
REMARK  210  A    between atoms: _512  and  _513
REMARK  211  A    between atoms: _519  and  _520
REMARK  212  A    between atoms: _525  and  _527
REMARK  213  A    between atoms: _527  and  _528
REMARK  214  A    between atoms: _527  and  _530
REMARK  215  A    between atoms: _530  and  _531
REMARK  216  A    between atoms: _531  and  _532
REMARK  217  A    between atoms: _535  and  _537
REMARK  218  A    between atoms: _537  and  _538
REMARK  219  A    between atoms: _537  and  _540
REMARK  220  A    between atoms: _540  and  _541
REMARK  221  A    between atoms: _541  and  _542
REMARK  222  A    between atoms: _542  and  _543
REMARK  223  A    between atoms: _552  and  _554
REMARK  224  A    between atoms: _554  and  _555
REMARK  225  A    between atoms: _554  and  _557
REMARK  226  A    between atoms: _557  and  _558
REMARK  227  A    between atoms: _561  and  _563
REMARK  228  A    between atoms: _563  and  _564
REMARK  229  A    between atoms: _563  and  _566
REMARK  230  A    between atoms: _566  and  _567
REMARK  231  A    between atoms: _569  and  _571
REMARK  232  A    between atoms: _571  and  _572
REMARK  233  A    between atoms: _571  and  _574
REMARK  234  A    between atoms: _574  and  _575
REMARK  235  A    between atoms: _575  and  _576
REMARK  236  A    between atoms: _576  and  _577
REMARK  237  A    between atoms: _577  and  _578
REMARK  238  A    between atoms: _582  and  _584
REMARK  239  A    between atoms: _584  and  _585
REMARK  240  A    between atoms: _584  and  _587
REMARK  241  A    between atoms: _587  and  _588
REMARK  242  A    between atoms: _591  and  _593
REMARK  243  A    between atoms: _593  and  _594
REMARK  244  A    between atoms: _596  and  _598
REMARK  245  A    between atoms: _598  and  _599
REMARK  246  A    between atoms: _598  and  _601
REMARK  247  A    between atoms: _601  and  _602
REMARK  248  A    between atoms: _604  and  _606
REMARK  249  A    between atoms: _606  and  _607
REMARK  250  A    between atoms: _609  and  _611
REMARK  251  A    between atoms: _611  and  _612
REMARK  252  A    between atoms: _611  and  _614
REMARK  253  A    between atoms: _614  and  _615
REMARK  254  A    between atoms: _620  and  _622
REMARK  255  A    between atoms: _622  and  _623
REMARK  256  A    between atoms: _622  and  _625
REMARK  257  A    between atoms: _625  and  _626
REMARK  258  A    between atoms: _629  and  _631
REMARK  259  A    between atoms: _631  and  _632
REMARK  260  A    between atoms: _631  and  _634
REMARK  261  A    between atoms: _634  and  _635
REMARK  262  A    between atoms: _641  and  _643
REMARK  263  A    between atoms: _643  and  _644
REMARK  264  A    between atoms: _643  and  _646
REMARK  265  A    between atoms: _646  and  _647
REMARK  266  A    between atoms: _647  and  _648
REMARK  267  A    between atoms: _651  and  _653
REMARK  268  A    between atoms: _653  and  _654
REMARK  269  A    between atoms: _653  and  _656
REMARK  270  A    between atoms: _656  and  _657
REMARK  271  A    between atoms: _657  and  _658
REMARK  272  A    between atoms: _663  and  _665
REMARK  273  A    between atoms: _665  and  _666
REMARK  274  A    between atoms: _665  and  _668
REMARK  275  A    between atoms: _668  and  _669
REMARK  276  A    between atoms: _669  and  _670
REMARK  277  A    between atoms: _670  and  _671
REMARK  278  A    between atoms: _680  and  _682
REMARK  279  A    between atoms: _682  and  _683
REMARK  280  A    between atoms: _682  and  _685
REMARK  281  A    between atoms: _685  and  _686
REMARK  282  A    between atoms: _686  and  _687
REMARK  283  A    between atoms: _687  and  _688
REMARK  284  A    between atoms: _697  and  _699
REMARK  285  A    between atoms: _699  and  _700
REMARK  286  A    between atoms: _699  and  _702
REMARK  287  A    between atoms: _702  and  _703
REMARK  288  A    between atoms: _708  and  _709
REMARK  289  A    between atoms: _711  and  _713
REMARK  290  A    between atoms: _713  and  _714
REMARK  291  A    between atoms: _713  and  _716
REMARK  292  A    between atoms: _716  and  _717
REMARK  293  A    between atoms: _720  and  _722
REMARK  294  A    between atoms: _722  and  _723
REMARK  295  A    between atoms: _722  and  _725
REMARK  296  A    between atoms: _725  and  _726
REMARK  297  A    between atoms: _726  and  _727
REMARK  298  A    between atoms: _727  and  _728
REMARK  299  A    between atoms: _728  and  _729
REMARK  300  A    between atoms: _733  and  _735
REMARK  301  A    between atoms: _735  and  _736
REMARK  302  A    between atoms: _735  and  _738
REMARK  303  A    between atoms: _738  and  _739
REMARK  304  A    between atoms: _744  and  _746
REMARK  305  A    between atoms: _746  and  _747
REMARK  306  A    between atoms: _746  and  _749
REMARK  307  A    between atoms: _749  and  _750
REMARK  308  A    between atoms: _760  and  _762
REMARK  309  A    between atoms: _762  and  _763
REMARK  310  A    between atoms: _762  and  _765
REMARK  311  A    between atoms: _765  and  _766
REMARK  312  A    between atoms: _766  and  _767
REMARK  313  A    between atoms: _770  and  _772
REMARK  314  A    between atoms: _772  and  _773
REMARK  315  A    between atoms: _772  and  _775
REMARK  316  A    between atoms: _775  and  _776
REMARK  317  A    between atoms: _779  and  _781
REMARK  318  A    between atoms: _781  and  _782
REMARK  319  A    between atoms: _781  and  _784
REMARK  320  A    between atoms: _784  and  _785
REMARK  321  A    between atoms: _790  and  _792
REMARK  322  A    between atoms: _792  and  _793
REMARK  323  A    between atoms: _792  and  _795
REMARK  324  A    between atoms: _795  and  _796
REMARK  325  A    between atoms: _802  and  _804
REMARK  326  A    between atoms: _804  and  _805
REMARK  327  A    between atoms: _804  and  _807
REMARK  328  A    between atoms: _807  and  _808
REMARK  329  A    between atoms: _810  and  _812
REMARK  330  A    between atoms: _812  and  _813
REMARK  331  A    between atoms: _815  and  _817
REMARK  332  A    between atoms: _817  and  _818
REMARK  333  A    between atoms: _817  and  _820
REMARK  334  A    between atoms: _820  and  _821
REMARK  335  A    between atoms: _826  and  _827
REMARK  336  A    between atoms: _829  and  _831
REMARK  337  A    between atoms: _831  and  _832
REMARK  338  A    between atoms: _831  and  _834
REMARK  339  A    between atoms: _834  and  _835
REMARK  340  A    between atoms: _840  and  _841
REMARK  341  A    between atoms: _843  and  _845
REMARK  342  A    between atoms: _845  and  _846
REMARK  343  A    between atoms: _845  and  _848
REMARK  344  A    between atoms: _848  and  _849
REMARK  345  A    between atoms: _853  and  ZN_1037
REMARK  346  A    between atoms: _854  and  _856
REMARK  347  A    between atoms: _856  and  _857
REMARK  348  A    between atoms: _856  and  _859
REMARK  349  A    between atoms: _859  and  _860
REMARK  350  A    between atoms: _860  and  _861
REMARK  351  A    between atoms: _864  and  _866
REMARK  352  A    between atoms: _866  and  _867
REMARK  353  A    between atoms: _866  and  _869
REMARK  354  A    between atoms: _869  and  _870
REMARK  355  A    between atoms: _870  and  _871
REMARK  356  A    between atoms: _871  and  _872
REMARK  357  A    between atoms: _881  and  _883
REMARK  358  A    between atoms: _883  and  _884
REMARK  359  A    between atoms: _883  and  _886
REMARK  360  A    between atoms: _886  and  _887
REMARK  361  A    between atoms: _887  and  _888
REMARK  362  A    between atoms: _888  and  _889
REMARK  363  A    between atoms: _889  and  _890
REMARK  364  A    between atoms: _894  and  _896
REMARK  365  A    between atoms: _896  and  _897
REMARK  366  A    between atoms: _896  and  _899
REMARK  367  A    between atoms: _899  and  _900
REMARK  368  A    between atoms: _905  and  _906
REMARK  369  A    between atoms: _908  and  _910
REMARK  370  A    between atoms: _910  and  _911
REMARK  371  A    between atoms: _910  and  _913
REMARK  372  A    between atoms: _913  and  _914
REMARK  373  A    between atoms: _914  and  _915
REMARK  374  A    between atoms: _915  and  _916
REMARK  375  A    between atoms: _916  and  _917
REMARK  376  A    between atoms: _921  and  _923
REMARK  377  A    between atoms: _923  and  _924
REMARK  378  A    between atoms: _923  and  _926
REMARK  379  A    between atoms: _926  and  _927
REMARK  380  A    between atoms: _932  and  _933
REMARK  381  A    between atoms: _935  and  _937
REMARK  382  A    between atoms: _937  and  _938
REMARK  383  A    between atoms: _937  and  _940
REMARK  384  A    between atoms: _940  and  _941
REMARK  385  A    between atoms: _946  and  _947
REMARK  386  A    between atoms: _949  and  _951
REMARK  387  A    between atoms: _951  and  _952
REMARK  388  A    between atoms: _956  and  _957
REMARK  389  A    between atoms: _962  and  _964
REMARK  390  A    between atoms: _964  and  _965
REMARK  391  A    between atoms: _964  and  _967
REMARK  392  A    between atoms: _967  and  _968
REMARK  393  A    between atoms: _970  and  _972
REMARK  394  A    between atoms: _972  and  _973
REMARK  395  A    between atoms: _972  and  _975
REMARK  396  A    between atoms: _975  and  _976
REMARK  397  A    between atoms: _981  and  _983
REMARK  398  A    between atoms: _983  and  _984
REMARK  399  A    between atoms: _983  and  _986
REMARK  400  A    between atoms: _986  and  _987
REMARK  401  A    between atoms: _987  and  _988
REMARK  402  A    between atoms: _988  and  _989
REMARK  403  A    between atoms: _989  and  _990
REMARK  404  A    between atoms: _994  and  _996
REMARK  405  A    between atoms: _996  and  _997
REMARK  406  A    between atoms: _996  and  _999
REMARK  407  A    between atoms: _999  and  _1000
REMARK  408  A    between atoms: _1005  and  _1006
REMARK  409  A    between atoms: _1008  and  _1010
REMARK  410  A    between atoms: _1010  and  _1011
REMARK  411  A    between atoms: _1014  and  _1016
REMARK  412  A    between atoms: _1016  and  _1017
REMARK  413  A    between atoms: _1019  and  _1021
REMARK  414  A    between atoms: _1021  and  _1022
REMARK  415  A    between atoms: _1021  and  _1024
REMARK  416  A    between atoms: _1024  and  _1025
REMARK  417  A    between atoms: _1025  and  _1026
REMARK  418  A    between atoms: _1029  and  _1031
REMARK  419  A    between atoms: _1031  and  _1032
REMARK  420  A    between atoms: _1031  and  _1034
REMARK  421  A    between atoms: _1034  and  _1035
REMARK                            x       y       z     vdW  Elec       q    Type
REMARK                         _______ _______ _______ _____ _____    ______ ____
ROOT
ATOM      1  O   HOH     1      25.265  63.266  49.975  0.00  0.00    +0.000 OA
ENDROOT
TORSDOF 0
REMARK  Name = ../refined-set-2016/2xef/2xef_pocket.pdb
REMARK  421 active torsions:
REMARK  status: ('A' for Active; 'I' for Inactive)
REMARK    1  A    between atoms: _1  and  _3
REMARK    2  A    between atoms: _3  and  _4
REMARK    3  A    between atoms: _7  and  _9
REMARK    4  A    between atoms: _9  and  _10
REMARK    5  A    between atoms: _9  and  _12
REMARK    6  A    between atoms: _12  and  _13
REMARK    7  A    between atoms: _19  and  _21
REMARK    8  A    between atoms: _21  and  _22
REMARK    9  A    between atoms: _21  and  _24
REMARK   10  A    between atoms: _24  and  _25
REMARK   11  A    between atoms: _30  and  _31
REMARK   12  A    between atoms: _33  and  _35
REMARK   13  A    between atoms: _35  and  _36
REMARK   14  A    between atoms: _38  and  _40
REMARK   15  A    between atoms: _40  and  _41
REMARK   16  A    between atoms: _40  and  _43
REMARK   17  A    between atoms: _43  and  _44
REMARK   18  A    between atoms: _44  and  _45
REMARK   19  A    between atoms: _45  and  _46
REMARK   20  A    between atoms: _46  and  _47
REMARK   21  A    between atoms: _51  and  _53
REMARK   22  A    between atoms: _53  and  _54
REMARK   23  A    between atoms: _53  and  _56
REMARK   24  A    between atoms: _59  and  _61
REMARK   25  A    between atoms: _61  and  _62
REMARK   26  A    between atoms: _61  and  _64
REMARK   27  A    between atoms: _64  and  _65
REMARK   28  A    between atoms: _71  and  _73
REMARK   29  A    between atoms: _73  and  _74
REMARK   30  A    between atoms: _73  and  _76
REMARK   31  A    between atoms: _76  and  _77
REMARK   32  A    between atoms: _77  and  _78
REMARK   33  A    between atoms: _78  and  _79
REMARK   34  A    between atoms: _88  and  _90
REMARK   35  A    between atoms: _90  and  _91
REMARK   36  A    between atoms: _93  and  _95
REMARK   37  A    between atoms: _95  and  _96
REMARK   38  A    between atoms: _95  and  _98
REMARK   39  A    between atoms: _98  and  _99
REMARK   40  A    between atoms: _99  and  _100
REMARK   41  A    between atoms: _100  and  _101
REMARK   42  A    between atoms: _101  and  _102
REMARK   43  A    between atoms: _106  and  _108
REMARK   44  A    between atoms: _108  and  _109
REMARK   45  A    between atoms: _108  and  _111
REMARK   46  A    between atoms: _111  and  _112
REMARK   47  A    between atoms: _117  and  _118
REMARK   48  A    between atoms: _120  and  _122
REMARK   49  A    between atoms: _122  and  _123
REMARK   50  A    between atoms: _122  and  _125
REMARK   51  A    between atoms: _125  and  _126
REMARK   52  A    between atoms: _126  and  _127
REMARK   53  A    between atoms: _132  and  _134
REMARK   54  A    between atoms: _134  and  _135
REMARK   55  A    between atoms: _134  and  _137
REMARK   56  A    between atoms: _137  and  _138
REMARK   57  A    between atoms: _138  and  _139
REMARK   58  A    between atoms: _139  and  _140
REMARK   59  A    between atoms: _149  and  _151
REMARK   60  A    between atoms: _151  and  _152
REMARK   61  A    between atoms: _154  and  _156
REMARK   62  A    between atoms: _156  and  _157
REMARK   63  A    between atoms: _156  and  _159
REMARK   64  A    between atoms: _159  and  _160
REMARK   65  A    between atoms: _165  and  _167
REMARK   66  A    between atoms: _167  and  _168
REMARK   67  A    between atoms: _167  and  _170
REMARK   68  A    between atoms: _170  and  _171
REMARK   69  A    between atoms: _174  and  _176
REMARK   70  A    between atoms: _176  and  _177
REMARK   71  A    between atoms: _176  and  _179
REMARK   72  A    between atoms: _179  and  _180
REMARK   73  A    between atoms: _183  and  _185
REMARK   74  A    between atoms: _185  and  _186
REMARK   75  A    between atoms: _185  and  _188
REMARK   76  A    between atoms: _188  and  _189
REMARK   77  A    between atoms: _194  and  _196
REMARK   78  A    between atoms: _196  and  _197
REMARK   79  A    between atoms: _196  and  _199
REMARK   80  A    between atoms: _199  and  _200
REMARK   81  A    between atoms: _203  and  _205
REMARK   82  A    between atoms: _205  and  _206
REMARK   83  A    between atoms: _205  and  _208
REMARK   84  A    between atoms: _208  and  _209
REMARK   85  A    between atoms: _214  and  _216
REMARK   86  A    between atoms: _216  and  _217
REMARK   87  A    between atoms: _219  and  _221
REMARK   88  A    between atoms: _221  and  _222
REMARK   89  A    between atoms: _224  and  _226
REMARK   90  A    between atoms: _226  and  _227
REMARK   91  A    between atoms: _226  and  _229
REMARK   92  A    between atoms: _229  and  _230
REMARK   93  A    between atoms: _234  and  ZN_1038
REMARK   94  A    between atoms: _235  and  _237
REMARK   95  A    between atoms: _237  and  _238
REMARK   96  A    between atoms: _237  and  _240
REMARK   97  A    between atoms: _240  and  _241
REMARK   98  A    between atoms: _244  and  _246
REMARK   99  A    between atoms: _246  and  _247
REMARK  100  A    between atoms: _246  and  _249
REMARK  101  A    between atoms: _249  and  _250
REMARK  102  A    between atoms: _260  and  _262
REMARK  103  A    between atoms: _262  and  _263
REMARK  104  A    between atoms: _262  and  _265
REMARK  105  A    between atoms: _265  and  _266
REMARK  106  A    between atoms: _269  and  _271
REMARK  107  A    between atoms: _271  and  _272
REMARK  108  A    between atoms: _271  and  _274
REMARK  109  A    between atoms: _274  and  _275
REMARK  110  A    between atoms: _279  and  _280
REMARK  111  A    between atoms: _285  and  _287
REMARK  112  A    between atoms: _287  and  _288
REMARK  113  A    between atoms: _291  and  _293
REMARK  114  A    between atoms: _293  and  _294
REMARK  115  A    between atoms: _293  and  _296
REMARK  116  A    between atoms: _296  and  _297
REMARK  117  A    between atoms: _297  and  _298
REMARK  118  A    between atoms: _301  and  _303
REMARK  119  A    between atoms: _303  and  _304
REMARK  120  A    between atoms: _303  and  _306
REMARK  121  A    between atoms: _306  and  _307
REMARK  122  A    between atoms: _307  and  _308
REMARK  123  A    between atoms: _308  and  _310
REMARK  124  A    between atoms: _310  and  ZN_1037
REMARK  125  A    between atoms: _311  and  _313
REMARK  126  A    between atoms: _313  and  _314
REMARK  127  A    between atoms: _313  and  _316
REMARK  128  A    between atoms: _316  and  _317
REMARK  129  A    between atoms: _323  and  _325
REMARK  130  A    between atoms: _325  and  _326
REMARK  131  A    between atoms: _328  and  _330
REMARK  132  A    between atoms: _330  and  _331
REMARK  133  A    between atoms: _330  and  _333
REMARK  134  A    between atoms: _333  and  _334
REMARK  135  A    between atoms: _337  and  _339
REMARK  136  A    between atoms: _339  and  _340
REMARK  137  A    between atoms: _339  and  _342
REMARK  138  A    between atoms: _342  and  _343
REMARK  139  A    between atoms: _346  and  _348
REMARK  140  A    between atoms: _348  and  _349
REMARK  141  A    between atoms: _348  and  _351
REMARK  142  A    between atoms: _351  and  _352
REMARK  143  A    between atoms: _357  and  _359
REMARK  144  A    between atoms: _359  and  _360
REMARK  145  A    between atoms: _359  and  _362
REMARK  146  A    between atoms: _362  and  _363
REMARK  147  A    between atoms: _363  and  _365
REMARK  148  A    between atoms: _365  and  ZN_1038
REMARK  149  A    between atoms: _366  and  _368
REMARK  150  A    between atoms: _368  and  _369
REMARK  151  A    between atoms: _368  and  _371
REMARK  152  A    between atoms: _371  and  _372
REMARK  153  A    between atoms: _374  and  _376
REMARK  154  A    between atoms: _376  and  _377
REMARK  155  A    between atoms: _376  and  _379
REMARK  156  A    between atoms: _379  and  _380
REMARK  157  A    between atoms: _382  and  _384
REMARK  158  A    between atoms: _384  and  _385
REMARK  159  A    between atoms: _384  and  _387
REMARK  160  A    between atoms: _387  and  _388
REMARK  161  A    between atoms: _391  and  _393
REMARK  162  A    between atoms: _393  and  _394
REMARK  163  A    between atoms: _393  and  _396
REMARK  164  A    between atoms: _396  and  _397
REMARK  165  A    between atoms: _397  and  _398
REMARK  166  A    between atoms: _401  and  _403
REMARK  167  A    between atoms: _403  and  _404
REMARK  168  A    between atoms: _403  and  _406
REMARK  169  A    between atoms: _406  and  _407
REMARK  170  A    between atoms: _412  and  _413
REMARK  171  A    between atoms: _415  and  _417
REMARK  172  A    between atoms: _417  and  _418
REMARK  173  A    between atoms: _417  and  _420
REMARK  174  A    between atoms: _420  and  _421
REMARK  175  A    between atoms: _424  and  _426
REMARK  176  A    between atoms: _426  and  _427
REMARK  177  A    between atoms: _426  and  _429
REMARK  178  A    between atoms: _429  and  _430
REMARK  179  A    between atoms: _433  and  _435
REMARK  180  A    between atoms: _435  and  _436
REMARK  181  A    between atoms: _435  and  _438
REMARK  182  A    between atoms: _438  and  _439
REMARK  183  A    between atoms: _439  and  _440
REMARK  184  A    between atoms: _440  and  _441
REMARK  185  A    between atoms: _450  and  _452
REMARK  186  A    between atoms: _452  and  _453
REMARK  187  A    between atoms: _452  and  _455
REMARK  188  A    between atoms: _458  and  _460
REMARK  189  A    between atoms: _460  and  _461
REMARK  190  A    between atoms: _460  and  _463
REMARK  191  A    between atoms: _463  and  _464
REMARK  192  A    between atoms: _467  and  _469
REMARK  193  A    between atoms: _469  and  _470
REMARK  194  A    between atoms: _469  and  _472
REMARK  195  A    between atoms: _474  and  _476
REMARK  196  A    between atoms: _476  and  _477
REMARK  197  A    between atoms: _476  and  _479
REMARK  198  A    between atoms: _479  and  _480
REMARK  199  A    between atoms: _490  and  _492
REMARK  200  A    between atoms: _492  and  _493
REMARK  201  A    between atoms: _492  and  _495
REMARK  202  A    between atoms: _495  and  _496
REMARK  203  A    between atoms: _496  and  _497
REMARK  204  A    between atoms: _497  and  _498
REMARK  205  A    between atoms: _498  and  _499
REMARK  206  A    between atoms: _503  and  _505
REMARK  207  A    between atoms: _505  and  _506
REMARK  208  A    between atoms: _505  and  _508
REMARK  209  A    between atoms: _508  and  _509
REMARK  210  A    between atoms: _512  and  _513
REMARK  211  A    between atoms: _519  and  _520
REMARK  212  A    between atoms: _525  and  _527
REMARK  213  A    between atoms: _527  and  _528
REMARK  214  A    between atoms: _527  and  _530
REMARK  215  A    between atoms: _530  and  _531
REMARK  216  A    between atoms: _531  and  _532
REMARK  217  A    between atoms: _535  and  _537
REMARK  218  A    between atoms: _537  and  _538
REMARK  219  A    between atoms: _537  and  _540
REMARK  220  A    between atoms: _540  and  _541
REMARK  221  A    between atoms: _541  and  _542
REMARK  222  A    between atoms: _542  and  _543
REMARK  223  A    between atoms: _552  and  _554
REMARK  224  A    between atoms: _554  and  _555
REMARK  225  A    between atoms: _554  and  _557
REMARK  226  A    between atoms: _557  and  _558
REMARK  227  A    between atoms: _561  and  _563
REMARK  228  A    between atoms: _563  and  _564
REMARK  229  A    between atoms: _563  and  _566
REMARK  230  A    between atoms: _566  and  _567
REMARK  231  A    between atoms: _569  and  _571
REMARK  232  A    between atoms: _571  and  _572
REMARK  233  A    between atoms: _571  and  _574
REMARK  234  A    between atoms: _574  and  _575
REMARK  235  A    between atoms: _575  and  _576
REMARK  236  A    between atoms: _576  and  _577
REMARK  237  A    between atoms: _577  and  _578
REMARK  238  A    between atoms: _582  and  _584
REMARK  239  A    between atoms: _584  and  _585
REMARK  240  A    between atoms: _584  and  _587
REMARK  241  A    between atoms: _587  and  _588
REMARK  242  A    between atoms: _591  and  _593
REMARK  243  A    between atoms: _593  and  _594
REMARK  244  A    between atoms: _596  and  _598
REMARK  245  A    between atoms: _598  and  _599
REMARK  246  A    between atoms: _598  and  _601
REMARK  247  A    between atoms: _601  and  _602
REMARK  248  A    between atoms: _604  and  _606
REMARK  249  A    between atoms: _606  and  _607
REMARK  250  A    between atoms: _609  and  _611
REMARK  251  A    between atoms: _611  and  _612
REMARK  252  A    between atoms: _611  and  _614
REMARK  253  A    between atoms: _614  and  _615
REMARK  254  A    between atoms: _620  and  _622
REMARK  255  A    between atoms: _622  and  _623
REMARK  256  A    between atoms: _622  and  _625
REMARK  257  A    between atoms: _625  and  _626
REMARK  258  A    between atoms: _629  and  _631
REMARK  259  A    between atoms: _631  and  _632
REMARK  260  A    between atoms: _631  and  _634
REMARK  261  A    between atoms: _634  and  _635
REMARK  262  A    between atoms: _641  and  _643
REMARK  263  A    between atoms: _643  and  _644
REMARK  264  A    between atoms: _643  and  _646
REMARK  265  A    between atoms: _646  and  _647
REMARK  266  A    between atoms: _647  and  _648
REMARK  267  A    between atoms: _651  and  _653
REMARK  268  A    between atoms: _653  and  _654
REMARK  269  A    between atoms: _653  and  _656
REMARK  270  A    between atoms: _656  and  _657
REMARK  271  A    between atoms: _657  and  _658
REMARK  272  A    between atoms: _663  and  _665
REMARK  273  A    between atoms: _665  and  _666
REMARK  274  A    between atoms: _665  and  _668
REMARK  275  A    between atoms: _668  and  _669
REMARK  276  A    between atoms: _669  and  _670
REMARK  277  A    between atoms: _670  and  _671
REMARK  278  A    between atoms: _680  and  _682
REMARK  279  A    between atoms: _682  and  _683
REMARK  280  A    between atoms: _682  and  _685
REMARK  281  A    between atoms: _685  and  _686
REMARK  282  A    between atoms: _686  and  _687
REMARK  283  A    between atoms: _687  and  _688
REMARK  284  A    between atoms: _697  and  _699
REMARK  285  A    between atoms: _699  and  _700
REMARK  286  A    between atoms: _699  and  _702
REMARK  287  A    between atoms: _702  and  _703
REMARK  288  A    between atoms: _708  and  _709
REMARK  289  A    between atoms: _711  and  _713
REMARK  290  A    between atoms: _713  and  _714
REMARK  291  A    between atoms: _713  and  _716
REMARK  292  A    between atoms: _716  and  _717
REMARK  293  A    between atoms: _720  and  _722
REMARK  294  A    between atoms: _722  and  _723
REMARK  295  A    between atoms: _722  and  _725
REMARK  296  A    between atoms: _725  and  _726
REMARK  297  A    between atoms: _726  and  _727
REMARK  298  A    between atoms: _727  and  _728
REMARK  299  A    between atoms: _728  and  _729
REMARK  300  A    between atoms: _733  and  _735
REMARK  301  A    between atoms: _735  and  _736
REMARK  302  A    between atoms: _735  and  _738
REMARK  303  A    between atoms: _738  and  _739
REMARK  304  A    between atoms: _744  and  _746
REMARK  305  A    between atoms: _746  and  _747
REMARK  306  A    between atoms: _746  and  _749
REMARK  307  A    between atoms: _749  and  _750
REMARK  308  A    between atoms: _760  and  _762
REMARK  309  A    between atoms: _762  and  _763
REMARK  310  A    between atoms: _762  and  _765
REMARK  311  A    between atoms: _765  and  _766
REMARK  312  A    between atoms: _766  and  _767
REMARK  313  A    between atoms: _770  and  _772
REMARK  314  A    between atoms: _772  and  _773
REMARK  315  A    between atoms: _772  and  _775
REMARK  316  A    between atoms: _775  and  _776
REMARK  317  A    between atoms: _779  and  _781
REMARK  318  A    between atoms: _781  and  _782
REMARK  319  A    between atoms: _781  and  _784
REMARK  320  A    between atoms: _784  and  _785
REMARK  321  A    between atoms: _790  and  _792
REMARK  322  A    between atoms: _792  and  _793
REMARK  323  A    between atoms: _792  and  _795
REMARK  324  A    between atoms: _795  and  _796
REMARK  325  A    between atoms: _802  and  _804
REMARK  326  A    between atoms: _804  and  _805
REMARK  327  A    between atoms: _804  and  _807
REMARK  328  A    between atoms: _807  and  _808
REMARK  329  A    between atoms: _810  and  _812
REMARK  330  A    between atoms: _812  and  _813
REMARK  331  A    between atoms: _815  and  _817
REMARK  332  A    between atoms: _817  and  _818
REMARK  333  A    between atoms: _817  and  _820
REMARK  334  A    between atoms: _820  and  _821
REMARK  335  A    between atoms: _826  and  _827
REMARK  336  A    between atoms: _829  and  _831
REMARK  337  A    between atoms: _831  and  _832
REMARK  338  A    between atoms: _831  and  _834
REMARK  339  A    between atoms: _834  and  _835
REMARK  340  A    between atoms: _840  and  _841
REMARK  341  A    between atoms: _843  and  _845
REMARK  342  A    between atoms: _845  and  _846
REMARK  343  A    between atoms: _845  and  _848
REMARK  344  A    between atoms: _848  and  _849
REMARK  345  A    between atoms: _853  and  ZN_1037
REMARK  346  A    between atoms: _854  and  _856
REMARK  347  A    between atoms: _856  and  _857
REMARK  348  A    between atoms: _856  and  _859
REMARK  349  A    between atoms: _859  and  _860
REMARK  350  A    between atoms: _860  and  _861
REMARK  351  A    between atoms: _864  and  _866
REMARK  352  A    between atoms: _866  and  _867
REMARK  353  A    between atoms: _866  and  _869
REMARK  354  A    between atoms: _869  and  _870
REMARK  355  A    between atoms: _870  and  _871
REMARK  356  A    between atoms: _871  and  _872
REMARK  357  A    between atoms: _881  and  _883
REMARK  358  A    between atoms: _883  and  _884
REMARK  359  A    between atoms: _883  and  _886
REMARK  360  A    between atoms: _886  and  _887
REMARK  361  A    between atoms: _887  and  _888
REMARK  362  A    between atoms: _888  and  _889
REMARK  363  A    between atoms: _889  and  _890
REMARK  364  A    between atoms: _894  and  _896
REMARK  365  A    between atoms: _896  and  _897
REMARK  366  A    between atoms: _896  and  _899
REMARK  367  A    between atoms: _899  and  _900
REMARK  368  A    between atoms: _905  and  _906
REMARK  369  A    between atoms: _908  and  _910
REMARK  370  A    between atoms: _910  and  _911
REMARK  371  A    between atoms: _910  and  _913
REMARK  372  A    between atoms: _913  and  _914
REMARK  373  A    between atoms: _914  and  _915
REMARK  374  A    between atoms: _915  and  _916
REMARK  375  A    between atoms: _916  and  _917
REMARK  376  A    between atoms: _921  and  _923
REMARK  377  A    between atoms: _923  and  _924
REMARK  378  A    between atoms: _923  and  _926
REMARK  379  A    between atoms: _926  and  _927
REMARK  380  A    between atoms: _932  and  _933
REMARK  381  A    between atoms: _935  and  _937
REMARK  382  A    between atoms: _937  and  _938
REMARK  383  A    between atoms: _937  and  _940
REMARK  384  A    between atoms: _940  and  _941
REMARK  385  A    between atoms: _946  and  _947
REMARK  386  A    between atoms: _949  and  _951
REMARK  387  A    between atoms: _951  and  _952
REMARK  388  A    between atoms: _956  and  _957
REMARK  389  A    between atoms: _962  and  _964
REMARK  390  A    between atoms: _964  and  _965
REMARK  391  A    between atoms: _964  and  _967
REMARK  392  A    between atoms: _967  and  _968
REMARK  393  A    between atoms: _970  and  _972
REMARK  394  A    between atoms: _972  and  _973
REMARK  395  A    between atoms: _972  and  _975
REMARK  396  A    between atoms: _975  and  _976
REMARK  397  A    between atoms: _981  and  _983
REMARK  398  A    between atoms: _983  and  _984
REMARK  399  A    between atoms: _983  and  _986
REMARK  400  A    between atoms: _986  and  _987
REMARK  401  A    between atoms: _987  and  _988
REMARK  402  A    between atoms: _988  and  _989
REMARK  403  A    between atoms: _989  and  _990
REMARK  404  A    between atoms: _994  and  _996
REMARK  405  A    between atoms: _996  and  _997
REMARK  406  A    between atoms: _996  and  _999
REMARK  407  A    between atoms: _999  and  _1000
REMARK  408  A    between atoms: _1005  and  _1006
REMARK  409  A    between atoms: _1008  and  _1010
REMARK  410  A    between atoms: _1010  and  _1011
REMARK  411  A    between atoms: _1014  and  _1016
REMARK  412  A    between atoms: _1016  and  _1017
REMARK  413  A    between atoms: _1019  and  _1021
REMARK  414  A    between atoms: _1021  and  _1022
REMARK  415  A    between atoms: _1021  and  _1024
REMARK  416  A    between atoms: _1024  and  _1025
REMARK  417  A    between atoms: _1025  and  _1026
REMARK  418  A    between atoms: _1029  and  _1031
REMARK  419  A    between atoms: _1031  and  _1032
REMARK  420  A    between atoms: _1031  and  _1034
REMARK  421  A    between atoms: _1034  and  _1035
REMARK                            x       y       z     vdW  Elec       q    Type
REMARK                         _______ _______ _______ _____ _____    ______ ____
ROOT
ATOM      1  O   HOH     1      14.000  54.746  37.327  0.00  0.00    +0.000 OA
ENDROOT
TORSDOF 0
REMARK  Name = ../refined-set-2016/2xef/2xef_pocket.pdb
REMARK  421 active torsions:
REMARK  status: ('A' for Active; 'I' for Inactive)
REMARK    1  A    between atoms: _1  and  _3
REMARK    2  A    between atoms: _3  and  _4
REMARK    3  A    between atoms: _7  and  _9
REMARK    4  A    between atoms: _9  and  _10
REMARK    5  A    between atoms: _9  and  _12
REMARK    6  A    between atoms: _12  and  _13
REMARK    7  A    between atoms: _19  and  _21
REMARK    8  A    between atoms: _21  and  _22
REMARK    9  A    between atoms: _21  and  _24
REMARK   10  A    between atoms: _24  and  _25
REMARK   11  A    between atoms: _30  and  _31
REMARK   12  A    between atoms: _33  and  _35
REMARK   13  A    between atoms: _35  and  _36
REMARK   14  A    between atoms: _38  and  _40
REMARK   15  A    between atoms: _40  and  _41
REMARK   16  A    between atoms: _40  and  _43
REMARK   17  A    between atoms: _43  and  _44
REMARK   18  A    between atoms: _44  and  _45
REMARK   19  A    between atoms: _45  and  _46
REMARK   20  A    between atoms: _46  and  _47
REMARK   21  A    between atoms: _51  and  _53
REMARK   22  A    between atoms: _53  and  _54
REMARK   23  A    between atoms: _53  and  _56
REMARK   24  A    between atoms: _59  and  _61
REMARK   25  A    between atoms: _61  and  _62
REMARK   26  A    between atoms: _61  and  _64
REMARK   27  A    between atoms: _64  and  _65
REMARK   28  A    between atoms: _71  and  _73
REMARK   29  A    between atoms: _73  and  _74
REMARK   30  A    between atoms: _73  and  _76
REMARK   31  A    between atoms: _76  and  _77
REMARK   32  A    between atoms: _77  and  _78
REMARK   33  A    between atoms: _78  and  _79
REMARK   34  A    between atoms: _88  and  _90
REMARK   35  A    between atoms: _90  and  _91
REMARK   36  A    between atoms: _93  and  _95
REMARK   37  A    between atoms: _95  and  _96
REMARK   38  A    between atoms: _95  and  _98
REMARK   39  A    between atoms: _98  and  _99
REMARK   40  A    between atoms: _99  and  _100
REMARK   41  A    between atoms: _100  and  _101
REMARK   42  A    between atoms: _101  and  _102
REMARK   43  A    between atoms: _106  and  _108
REMARK   44  A    between atoms: _108  and  _109
REMARK   45  A    between atoms: _108  and  _111
REMARK   46  A    between atoms: _111  and  _112
REMARK   47  A    between atoms: _117  and  _118
REMARK   48  A    between atoms: _120  and  _122
REMARK   49  A    between atoms: _122  and  _123
REMARK   50  A    between atoms: _122  and  _125
REMARK   51  A    between atoms: _125  and  _126
REMARK   52  A    between atoms: _126  and  _127
REMARK   53  A    between atoms: _132  and  _134
REMARK   54  A    between atoms: _134  and  _135
REMARK   55  A    between atoms: _134  and  _137
REMARK   56  A    between atoms: _137  and  _138
REMARK   57  A    between atoms: _138  and  _139
REMARK   58  A    between atoms: _139  and  _140
REMARK   59  A    between atoms: _149  and  _151
REMARK   60  A    between atoms: _151  and  _152
REMARK   61  A    between atoms: _154  and  _156
REMARK   62  A    between atoms: _156  and  _157
REMARK   63  A    between atoms: _156  and  _159
REMARK   64  A    between atoms: _159  and  _160
REMARK   65  A    between atoms: _165  and  _167
REMARK   66  A    between atoms: _167  and  _168
REMARK   67  A    between atoms: _167  and  _170
REMARK   68  A    between atoms: _170  and  _171
REMARK   69  A    between atoms: _174  and  _176
REMARK   70  A    between atoms: _176  and  _177
REMARK   71  A    between atoms: _176  and  _179
REMARK   72  A    between atoms: _179  and  _180
REMARK   73  A    between atoms: _183  and  _185
REMARK   74  A    between atoms: _185  and  _186
REMARK   75  A    between atoms: _185  and  _188
REMARK   76  A    between atoms: _188  and  _189
REMARK   77  A    between atoms: _194  and  _196
REMARK   78  A    between atoms: _196  and  _197
REMARK   79  A    between atoms: _196  and  _199
REMARK   80  A    between atoms: _199  and  _200
REMARK   81  A    between atoms: _203  and  _205
REMARK   82  A    between atoms: _205  and  _206
REMARK   83  A    between atoms: _205  and  _208
REMARK   84  A    between atoms: _208  and  _209
REMARK   85  A    between atoms: _214  and  _216
REMARK   86  A    between atoms: _216  and  _217
REMARK   87  A    between atoms: _219  and  _221
REMARK   88  A    between atoms: _221  and  _222
REMARK   89  A    between atoms: _224  and  _226
REMARK   90  A    between atoms: _226  and  _227
REMARK   91  A    between atoms: _226  and  _229
REMARK   92  A    between atoms: _229  and  _230
REMARK   93  A    between atoms: _234  and  ZN_1038
REMARK   94  A    between atoms: _235  and  _237
REMARK   95  A    between atoms: _237  and  _238
REMARK   96  A    between atoms: _237  and  _240
REMARK   97  A    between atoms: _240  and  _241
REMARK   98  A    between atoms: _244  and  _246
REMARK   99  A    between atoms: _246  and  _247
REMARK  100  A    between atoms: _246  and  _249
REMARK  101  A    between atoms: _249  and  _250
REMARK  102  A    between atoms: _260  and  _262
REMARK  103  A    between atoms: _262  and  _263
REMARK  104  A    between atoms: _262  and  _265
REMARK  105  A    between atoms: _265  and  _266
REMARK  106  A    between atoms: _269  and  _271
REMARK  107  A    between atoms: _271  and  _272
REMARK  108  A    between atoms: _271  and  _274
REMARK  109  A    between atoms: _274  and  _275
REMARK  110  A    between atoms: _279  and  _280
REMARK  111  A    between atoms: _285  and  _287
REMARK  112  A    between atoms: _287  and  _288
REMARK  113  A    between atoms: _291  and  _293
REMARK  114  A    between atoms: _293  and  _294
REMARK  115  A    between atoms: _293  and  _296
REMARK  116  A    between atoms: _296  and  _297
REMARK  117  A    between atoms: _297  and  _298
REMARK  118  A    between atoms: _301  and  _303
REMARK  119  A    between atoms: _303  and  _304
REMARK  120  A    between atoms: _303  and  _306
REMARK  121  A    between atoms: _306  and  _307
REMARK  122  A    between atoms: _307  and  _308
REMARK  123  A    between atoms: _308  and  _310
REMARK  124  A    between atoms: _310  and  ZN_1037
REMARK  125  A    between atoms: _311  and  _313
REMARK  126  A    between atoms: _313  and  _314
REMARK  127  A    between atoms: _313  and  _316
REMARK  128  A    between atoms: _316  and  _317
REMARK  129  A    between atoms: _323  and  _325
REMARK  130  A    between atoms: _325  and  _326
REMARK  131  A    between atoms: _328  and  _330
REMARK  132  A    between atoms: _330  and  _331
REMARK  133  A    between atoms: _330  and  _333
REMARK  134  A    between atoms: _333  and  _334
REMARK  135  A    between atoms: _337  and  _339
REMARK  136  A    between atoms: _339  and  _340
REMARK  137  A    between atoms: _339  and  _342
REMARK  138  A    between atoms: _342  and  _343
REMARK  139  A    between atoms: _346  and  _348
REMARK  140  A    between atoms: _348  and  _349
REMARK  141  A    between atoms: _348  and  _351
REMARK  142  A    between atoms: _351  and  _352
REMARK  143  A    between atoms: _357  and  _359
REMARK  144  A    between atoms: _359  and  _360
REMARK  145  A    between atoms: _359  and  _362
REMARK  146  A    between atoms: _362  and  _363
REMARK  147  A    between atoms: _363  and  _365
REMARK  148  A    between atoms: _365  and  ZN_1038
REMARK  149  A    between atoms: _366  and  _368
REMARK  150  A    between atoms: _368  and  _369
REMARK  151  A    between atoms: _368  and  _371
REMARK  152  A    between atoms: _371  and  _372
REMARK  153  A    between atoms: _374  and  _376
REMARK  154  A    between atoms: _376  and  _377
REMARK  155  A    between atoms: _376  and  _379
REMARK  156  A    between atoms: _379  and  _380
REMARK  157  A    between atoms: _382  and  _384
REMARK  158  A    between atoms: _384  and  _385
REMARK  159  A    between atoms: _384  and  _387
REMARK  160  A    between atoms: _387  and  _388
REMARK  161  A    between atoms: _391  and  _393
REMARK  162  A    between atoms: _393  and  _394
REMARK  163  A    between atoms: _393  and  _396
REMARK  164  A    between atoms: _396  and  _397
REMARK  165  A    between atoms: _397  and  _398
REMARK  166  A    between atoms: _401  and  _403
REMARK  167  A    between atoms: _403  and  _404
REMARK  168  A    between atoms: _403  and  _406
REMARK  169  A    between atoms: _406  and  _407
REMARK  170  A    between atoms: _412  and  _413
REMARK  171  A    between atoms: _415  and  _417
REMARK  172  A    between atoms: _417  and  _418
REMARK  173  A    between atoms: _417  and  _420
REMARK  174  A    between atoms: _420  and  _421
REMARK  175  A    between atoms: _424  and  _426
REMARK  176  A    between atoms: _426  and  _427
REMARK  177  A    between atoms: _426  and  _429
REMARK  178  A    between atoms: _429  and  _430
REMARK  179  A    between atoms: _433  and  _435
REMARK  180  A    between atoms: _435  and  _436
REMARK  181  A    between atoms: _435  and  _438
REMARK  182  A    between atoms: _438  and  _439
REMARK  183  A    between atoms: _439  and  _440
REMARK  184  A    between atoms: _440  and  _441
REMARK  185  A    between atoms: _450  and  _452
REMARK  186  A    between atoms: _452  and  _453
REMARK  187  A    between atoms: _452  and  _455
REMARK  188  A    between atoms: _458  and  _460
REMARK  189  A    between atoms: _460  and  _461
REMARK  190  A    between atoms: _460  and  _463
REMARK  191  A    between atoms: _463  and  _464
REMARK  192  A    between atoms: _467  and  _469
REMARK  193  A    between atoms: _469  and  _470
REMARK  194  A    between atoms: _469  and  _472
REMARK  195  A    between atoms: _474  and  _476
REMARK  196  A    between atoms: _476  and  _477
REMARK  197  A    between atoms: _476  and  _479
REMARK  198  A    between atoms: _479  and  _480
REMARK  199  A    between atoms: _490  and  _492
REMARK  200  A    between atoms: _492  and  _493
REMARK  201  A    between atoms: _492  and  _495
REMARK  202  A    between atoms: _495  and  _496
REMARK  203  A    between atoms: _496  and  _497
REMARK  204  A    between atoms: _497  and  _498
REMARK  205  A    between atoms: _498  and  _499
REMARK  206  A    between atoms: _503  and  _505
REMARK  207  A    between atoms: _505  and  _506
REMARK  208  A    between atoms: _505  and  _508
REMARK  209  A    between atoms: _508  and  _509
REMARK  210  A    between atoms: _512  and  _513
REMARK  211  A    between atoms: _519  and  _520
REMARK  212  A    between atoms: _525  and  _527
REMARK  213  A    between atoms: _527  and  _528
REMARK  214  A    between atoms: _527  and  _530
REMARK  215  A    between atoms: _530  and  _531
REMARK  216  A    between atoms: _531  and  _532
REMARK  217  A    between atoms: _535  and  _537
REMARK  218  A    between atoms: _537  and  _538
REMARK  219  A    between atoms: _537  and  _540
REMARK  220  A    between atoms: _540  and  _541
REMARK  221  A    between atoms: _541  and  _542
REMARK  222  A    between atoms: _542  and  _543
REMARK  223  A    between atoms: _552  and  _554
REMARK  224  A    between atoms: _554  and  _555
REMARK  225  A    between atoms: _554  and  _557
REMARK  226  A    between atoms: _557  and  _558
REMARK  227  A    between atoms: _561  and  _563
REMARK  228  A    between atoms: _563  and  _564
REMARK  229  A    between atoms: _563  and  _566
REMARK  230  A    between atoms: _566  and  _567
REMARK  231  A    between atoms: _569  and  _571
REMARK  232  A    between atoms: _571  and  _572
REMARK  233  A    between atoms: _571  and  _574
REMARK  234  A    between atoms: _574  and  _575
REMARK  235  A    between atoms: _575  and  _576
REMARK  236  A    between atoms: _576  and  _577
REMARK  237  A    between atoms: _577  and  _578
REMARK  238  A    between atoms: _582  and  _584
REMARK  239  A    between atoms: _584  and  _585
REMARK  240  A    between atoms: _584  and  _587
REMARK  241  A    between atoms: _587  and  _588
REMARK  242  A    between atoms: _591  and  _593
REMARK  243  A    between atoms: _593  and  _594
REMARK  244  A    between atoms: _596  and  _598
REMARK  245  A    between atoms: _598  and  _599
REMARK  246  A    between atoms: _598  and  _601
REMARK  247  A    between atoms: _601  and  _602
REMARK  248  A    between atoms: _604  and  _606
REMARK  249  A    between atoms: _606  and  _607
REMARK  250  A    between atoms: _609  and  _611
REMARK  251  A    between atoms: _611  and  _612
REMARK  252  A    between atoms: _611  and  _614
REMARK  253  A    between atoms: _614  and  _615
REMARK  254  A    between atoms: _620  and  _622
REMARK  255  A    between atoms: _622  and  _623
REMARK  256  A    between atoms: _622  and  _625
REMARK  257  A    between atoms: _625  and  _626
REMARK  258  A    between atoms: _629  and  _631
REMARK  259  A    between atoms: _631  and  _632
REMARK  260  A    between atoms: _631  and  _634
REMARK  261  A    between atoms: _634  and  _635
REMARK  262  A    between atoms: _641  and  _643
REMARK  263  A    between atoms: _643  and  _644
REMARK  264  A    between atoms: _643  and  _646
REMARK  265  A    between atoms: _646  and  _647
REMARK  266  A    between atoms: _647  and  _648
REMARK  267  A    between atoms: _651  and  _653
REMARK  268  A    between atoms: _653  and  _654
REMARK  269  A    between atoms: _653  and  _656
REMARK  270  A    between atoms: _656  and  _657
REMARK  271  A    between atoms: _657  and  _658
REMARK  272  A    between atoms: _663  and  _665
REMARK  273  A    between atoms: _665  and  _666
REMARK  274  A    between atoms: _665  and  _668
REMARK  275  A    between atoms: _668  and  _669
REMARK  276  A    between atoms: _669  and  _670
REMARK  277  A    between atoms: _670  and  _671
REMARK  278  A    between atoms: _680  and  _682
REMARK  279  A    between atoms: _682  and  _683
REMARK  280  A    between atoms: _682  and  _685
REMARK  281  A    between atoms: _685  and  _686
REMARK  282  A    between atoms: _686  and  _687
REMARK  283  A    between atoms: _687  and  _688
REMARK  284  A    between atoms: _697  and  _699
REMARK  285  A    between atoms: _699  and  _700
REMARK  286  A    between atoms: _699  and  _702
REMARK  287  A    between atoms: _702  and  _703
REMARK  288  A    between atoms: _708  and  _709
REMARK  289  A    between atoms: _711  and  _713
REMARK  290  A    between atoms: _713  and  _714
REMARK  291  A    between atoms: _713  and  _716
REMARK  292  A    between atoms: _716  and  _717
REMARK  293  A    between atoms: _720  and  _722
REMARK  294  A    between atoms: _722  and  _723
REMARK  295  A    between atoms: _722  and  _725
REMARK  296  A    between atoms: _725  and  _726
REMARK  297  A    between atoms: _726  and  _727
REMARK  298  A    between atoms: _727  and  _728
REMARK  299  A    between atoms: _728  and  _729
REMARK  300  A    between atoms: _733  and  _735
REMARK  301  A    between atoms: _735  and  _736
REMARK  302  A    between atoms: _735  and  _738
REMARK  303  A    between atoms: _738  and  _739
REMARK  304  A    between atoms: _744  and  _746
REMARK  305  A    between atoms: _746  and  _747
REMARK  306  A    between atoms: _746  and  _749
REMARK  307  A    between atoms: _749  and  _750
REMARK  308  A    between atoms: _760  and  _762
REMARK  309  A    between atoms: _762  and  _763
REMARK  310  A    between atoms: _762  and  _765
REMARK  311  A    between atoms: _765  and  _766
REMARK  312  A    between atoms: _766  and  _767
REMARK  313  A    between atoms: _770  and  _772
REMARK  314  A    between atoms: _772  and  _773
REMARK  315  A    between atoms: _772  and  _775
REMARK  316  A    between atoms: _775  and  _776
REMARK  317  A    between atoms: _779  and  _781
REMARK  318  A    between atoms: _781  and  _782
REMARK  319  A    between atoms: _781  and  _784
REMARK  320  A    between atoms: _784  and  _785
REMARK  321  A    between atoms: _790  and  _792
REMARK  322  A    between atoms: _792  and  _793
REMARK  323  A    between atoms: _792  and  _795
REMARK  324  A    between atoms: _795  and  _796
REMARK  325  A    between atoms: _802  and  _804
REMARK  326  A    between atoms: _804  and  _805
REMARK  327  A    between atoms: _804  and  _807
REMARK  328  A    between atoms: _807  and  _808
REMARK  329  A    between atoms: _810  and  _812
REMARK  330  A    between atoms: _812  and  _813
REMARK  331  A    between atoms: _815  and  _817
REMARK  332  A    between atoms: _817  and  _818
REMARK  333  A    between atoms: _817  and  _820
REMARK  334  A    between atoms: _820  and  _821
REMARK  335  A    between atoms: _826  and  _827
REMARK  336  A    between atoms: _829  and  _831
REMARK  337  A    between atoms: _831  and  _832
REMARK  338  A    between atoms: _831  and  _834
REMARK  339  A    between atoms: _834  and  _835
REMARK  340  A    between atoms: _840  and  _841
REMARK  341  A    between atoms: _843  and  _845
REMARK  342  A    between atoms: _845  and  _846
REMARK  343  A    between atoms: _845  and  _848
REMARK  344  A    between atoms: _848  and  _849
REMARK  345  A    between atoms: _853  and  ZN_1037
REMARK  346  A    between atoms: _854  and  _856
REMARK  347  A    between atoms: _856  and  _857
REMARK  348  A    between atoms: _856  and  _859
REMARK  349  A    between atoms: _859  and  _860
REMARK  350  A    between atoms: _860  and  _861
REMARK  351  A    between atoms: _864  and  _866
REMARK  352  A    between atoms: _866  and  _867
REMARK  353  A    between atoms: _866  and  _869
REMARK  354  A    between atoms: _869  and  _870
REMARK  355  A    between atoms: _870  and  _871
REMARK  356  A    between atoms: _871  and  _872
REMARK  357  A    between atoms: _881  and  _883
REMARK  358  A    between atoms: _883  and  _884
REMARK  359  A    between atoms: _883  and  _886
REMARK  360  A    between atoms: _886  and  _887
REMARK  361  A    between atoms: _887  and  _888
REMARK  362  A    between atoms: _888  and  _889
REMARK  363  A    between atoms: _889  and  _890
REMARK  364  A    between atoms: _894  and  _896
REMARK  365  A    between atoms: _896  and  _897
REMARK  366  A    between atoms: _896  and  _899
REMARK  367  A    between atoms: _899  and  _900
REMARK  368  A    between atoms: _905  and  _906
REMARK  369  A    between atoms: _908  and  _910
REMARK  370  A    between atoms: _910  and  _911
REMARK  371  A    between atoms: _910  and  _913
REMARK  372  A    between atoms: _913  and  _914
REMARK  373  A    between atoms: _914  and  _915
REMARK  374  A    between atoms: _915  and  _916
REMARK  375  A    between atoms: _916  and  _917
REMARK  376  A    between atoms: _921  and  _923
REMARK  377  A    between atoms: _923  and  _924
REMARK  378  A    between atoms: _923  and  _926
REMARK  379  A    between atoms: _926  and  _927
REMARK  380  A    between atoms: _932  and  _933
REMARK  381  A    between atoms: _935  and  _937
REMARK  382  A    between atoms: _937  and  _938
REMARK  383  A    between atoms: _937  and  _940
REMARK  384  A    between atoms: _940  and  _941
REMARK  385  A    between atoms: _946  and  _947
REMARK  386  A    between atoms: _949  and  _951
REMARK  387  A    between atoms: _951  and  _952
REMARK  388  A    between atoms: _956  and  _957
REMARK  389  A    between atoms: _962  and  _964
REMARK  390  A    between atoms: _964  and  _965
REMARK  391  A    between atoms: _964  and  _967
REMARK  392  A    between atoms: _967  and  _968
REMARK  393  A    between atoms: _970  and  _972
REMARK  394  A    between atoms: _972  and  _973
REMARK  395  A    between atoms: _972  and  _975
REMARK  396  A    between atoms: _975  and  _976
REMARK  397  A    between atoms: _981  and  _983
REMARK  398  A    between atoms: _983  and  _984
REMARK  399  A    between atoms: _983  and  _986
REMARK  400  A    between atoms: _986  and  _987
REMARK  401  A    between atoms: _987  and  _988
REMARK  402  A    between atoms: _988  and  _989
REMARK  403  A    between atoms: _989  and  _990
REMARK  404  A    between atoms: _994  and  _996
REMARK  405  A    between atoms: _996  and  _997
REMARK  406  A    between atoms: _996  and  _999
REMARK  407  A    between atoms: _999  and  _1000
REMARK  408  A    between atoms: _1005  and  _1006
REMARK  409  A    between atoms: _1008  and  _1010
REMARK  410  A    between atoms: _1010  and  _1011
REMARK  411  A    between atoms: _1014  and  _1016
REMARK  412  A    between atoms: _1016  and  _1017
REMARK  413  A    between atoms: _1019  and  _1021
REMARK  414  A    between atoms: _1021  and  _1022
REMARK  415  A    between atoms: _1021  and  _1024
REMARK  416  A    between atoms: _1024  and  _1025
REMARK  417  A    between atoms: _1025  and  _1026
REMARK  418  A    between atoms: _1029  and  _1031
REMARK  419  A    between atoms: _1031  and  _1032
REMARK  420  A    between atoms: _1031  and  _1034
REMARK  421  A    between atoms: _1034  and  _1035
REMARK                            x       y       z     vdW  Elec       q    Type
REMARK                         _______ _______ _______ _____ _____    ______ ____
ROOT
ATOM      1  O   HOH     1      23.679  58.199  36.632  0.00  0.00    +0.000 OA
ENDROOT
TORSDOF 0
REMARK  Name = ../refined-set-2016/2xef/2xef_pocket.pdb
REMARK  421 active torsions:
REMARK  status: ('A' for Active; 'I' for Inactive)
REMARK    1  A    between atoms: _1  and  _3
REMARK    2  A    between atoms: _3  and  _4
REMARK    3  A    between atoms: _7  and  _9
REMARK    4  A    between atoms: _9  and  _10
REMARK    5  A    between atoms: _9  and  _12
REMARK    6  A    between atoms: _12  and  _13
REMARK    7  A    between atoms: _19  and  _21
REMARK    8  A    between atoms: _21  and  _22
REMARK    9  A    between atoms: _21  and  _24
REMARK   10  A    between atoms: _24  and  _25
REMARK   11  A    between atoms: _30  and  _31
REMARK   12  A    between atoms: _33  and  _35
REMARK   13  A    between atoms: _35  and  _36
REMARK   14  A    between atoms: _38  and  _40
REMARK   15  A    between atoms: _40  and  _41
REMARK   16  A    between atoms: _40  and  _43
REMARK   17  A    between atoms: _43  and  _44
REMARK   18  A    between atoms: _44  and  _45
REMARK   19  A    between atoms: _45  and  _46
REMARK   20  A    between atoms: _46  and  _47
REMARK   21  A    between atoms: _51  and  _53
REMARK   22  A    between atoms: _53  and  _54
REMARK   23  A    between atoms: _53  and  _56
REMARK   24  A    between atoms: _59  and  _61
REMARK   25  A    between atoms: _61  and  _62
REMARK   26  A    between atoms: _61  and  _64
REMARK   27  A    between atoms: _64  and  _65
REMARK   28  A    between atoms: _71  and  _73
REMARK   29  A    between atoms: _73  and  _74
REMARK   30  A    between atoms: _73  and  _76
REMARK   31  A    between atoms: _76  and  _77
REMARK   32  A    between atoms: _77  and  _78
REMARK   33  A    between atoms: _78  and  _79
REMARK   34  A    between atoms: _88  and  _90
REMARK   35  A    between atoms: _90  and  _91
REMARK   36  A    between atoms: _93  and  _95
REMARK   37  A    between atoms: _95  and  _96
REMARK   38  A    between atoms: _95  and  _98
REMARK   39  A    between atoms: _98  and  _99
REMARK   40  A    between atoms: _99  and  _100
REMARK   41  A    between atoms: _100  and  _101
REMARK   42  A    between atoms: _101  and  _102
REMARK   43  A    between atoms: _106  and  _108
REMARK   44  A    between atoms: _108  and  _109
REMARK   45  A    between atoms: _108  and  _111
REMARK   46  A    between atoms: _111  and  _112
REMARK   47  A    between atoms: _117  and  _118
REMARK   48  A    between atoms: _120  and  _122
REMARK   49  A    between atoms: _122  and  _123
REMARK   50  A    between atoms: _122  and  _125
REMARK   51  A    between atoms: _125  and  _126
REMARK   52  A    between atoms: _126  and  _127
REMARK   53  A    between atoms: _132  and  _134
REMARK   54  A    between atoms: _134  and  _135
REMARK   55  A    between atoms: _134  and  _137
REMARK   56  A    between atoms: _137  and  _138
REMARK   57  A    between atoms: _138  and  _139
REMARK   58  A    between atoms: _139  and  _140
REMARK   59  A    between atoms: _149  and  _151
REMARK   60  A    between atoms: _151  and  _152
REMARK   61  A    between atoms: _154  and  _156
REMARK   62  A    between atoms: _156  and  _157
REMARK   63  A    between atoms: _156  and  _159
REMARK   64  A    between atoms: _159  and  _160
REMARK   65  A    between atoms: _165  and  _167
REMARK   66  A    between atoms: _167  and  _168
REMARK   67  A    between atoms: _167  and  _170
REMARK   68  A    between atoms: _170  and  _171
REMARK   69  A    between atoms: _174  and  _176
REMARK   70  A    between atoms: _176  and  _177
REMARK   71  A    between atoms: _176  and  _179
REMARK   72  A    between atoms: _179  and  _180
REMARK   73  A    between atoms: _183  and  _185
REMARK   74  A    between atoms: _185  and  _186
REMARK   75  A    between atoms: _185  and  _188
REMARK   76  A    between atoms: _188  and  _189
REMARK   77  A    between atoms: _194  and  _196
REMARK   78  A    between atoms: _196  and  _197
REMARK   79  A    between atoms: _196  and  _199
REMARK   80  A    between atoms: _199  and  _200
REMARK   81  A    between atoms: _203  and  _205
REMARK   82  A    between atoms: _205  and  _206
REMARK   83  A    between atoms: _205  and  _208
REMARK   84  A    between atoms: _208  and  _209
REMARK   85  A    between atoms: _214  and  _216
REMARK   86  A    between atoms: _216  and  _217
REMARK   87  A    between atoms: _219  and  _221
REMARK   88  A    between atoms: _221  and  _222
REMARK   89  A    between atoms: _224  and  _226
REMARK   90  A    between atoms: _226  and  _227
REMARK   91  A    between atoms: _226  and  _229
REMARK   92  A    between atoms: _229  and  _230
REMARK   93  A    between atoms: _234  and  ZN_1038
REMARK   94  A    between atoms: _235  and  _237
REMARK   95  A    between atoms: _237  and  _238
REMARK   96  A    between atoms: _237  and  _240
REMARK   97  A    between atoms: _240  and  _241
REMARK   98  A    between atoms: _244  and  _246
REMARK   99  A    between atoms: _246  and  _247
REMARK  100  A    between atoms: _246  and  _249
REMARK  101  A    between atoms: _249  and  _250
REMARK  102  A    between atoms: _260  and  _262
REMARK  103  A    between atoms: _262  and  _263
REMARK  104  A    between atoms: _262  and  _265
REMARK  105  A    between atoms: _265  and  _266
REMARK  106  A    between atoms: _269  and  _271
REMARK  107  A    between atoms: _271  and  _272
REMARK  108  A    between atoms: _271  and  _274
REMARK  109  A    between atoms: _274  and  _275
REMARK  110  A    between atoms: _279  and  _280
REMARK  111  A    between atoms: _285  and  _287
REMARK  112  A    between atoms: _287  and  _288
REMARK  113  A    between atoms: _291  and  _293
REMARK  114  A    between atoms: _293  and  _294
REMARK  115  A    between atoms: _293  and  _296
REMARK  116  A    between atoms: _296  and  _297
REMARK  117  A    between atoms: _297  and  _298
REMARK  118  A    between atoms: _301  and  _303
REMARK  119  A    between atoms: _303  and  _304
REMARK  120  A    between atoms: _303  and  _306
REMARK  121  A    between atoms: _306  and  _307
REMARK  122  A    between atoms: _307  and  _308
REMARK  123  A    between atoms: _308  and  _310
REMARK  124  A    between atoms: _310  and  ZN_1037
REMARK  125  A    between atoms: _311  and  _313
REMARK  126  A    between atoms: _313  and  _314
REMARK  127  A    between atoms: _313  and  _316
REMARK  128  A    between atoms: _316  and  _317
REMARK  129  A    between atoms: _323  and  _325
REMARK  130  A    between atoms: _325  and  _326
REMARK  131  A    between atoms: _328  and  _330
REMARK  132  A    between atoms: _330  and  _331
REMARK  133  A    between atoms: _330  and  _333
REMARK  134  A    between atoms: _333  and  _334
REMARK  135  A    between atoms: _337  and  _339
REMARK  136  A    between atoms: _339  and  _340
REMARK  137  A    between atoms: _339  and  _342
REMARK  138  A    between atoms: _342  and  _343
REMARK  139  A    between atoms: _346  and  _348
REMARK  140  A    between atoms: _348  and  _349
REMARK  141  A    between atoms: _348  and  _351
REMARK  142  A    between atoms: _351  and  _352
REMARK  143  A    between atoms: _357  and  _359
REMARK  144  A    between atoms: _359  and  _360
REMARK  145  A    between atoms: _359  and  _362
REMARK  146  A    between atoms: _362  and  _363
REMARK  147  A    between atoms: _363  and  _365
REMARK  148  A    between atoms: _365  and  ZN_1038
REMARK  149  A    between atoms: _366  and  _368
REMARK  150  A    between atoms: _368  and  _369
REMARK  151  A    between atoms: _368  and  _371
REMARK  152  A    between atoms: _371  and  _372
REMARK  153  A    between atoms: _374  and  _376
REMARK  154  A    between atoms: _376  and  _377
REMARK  155  A    between atoms: _376  and  _379
REMARK  156  A    between atoms: _379  and  _380
REMARK  157  A    between atoms: _382  and  _384
REMARK  158  A    between atoms: _384  and  _385
REMARK  159  A    between atoms: _384  and  _387
REMARK  160  A    between atoms: _387  and  _388
REMARK  161  A    between atoms: _391  and  _393
REMARK  162  A    between atoms: _393  and  _394
REMARK  163  A    between atoms: _393  and  _396
REMARK  164  A    between atoms: _396  and  _397
REMARK  165  A    between atoms: _397  and  _398
REMARK  166  A    between atoms: _401  and  _403
REMARK  167  A    between atoms: _403  and  _404
REMARK  168  A    between atoms: _403  and  _406
REMARK  169  A    between atoms: _406  and  _407
REMARK  170  A    between atoms: _412  and  _413
REMARK  171  A    between atoms: _415  and  _417
REMARK  172  A    between atoms: _417  and  _418
REMARK  173  A    between atoms: _417  and  _420
REMARK  174  A    between atoms: _420  and  _421
REMARK  175  A    between atoms: _424  and  _426
REMARK  176  A    between atoms: _426  and  _427
REMARK  177  A    between atoms: _426  and  _429
REMARK  178  A    between atoms: _429  and  _430
REMARK  179  A    between atoms: _433  and  _435
REMARK  180  A    between atoms: _435  and  _436
REMARK  181  A    between atoms: _435  and  _438
REMARK  182  A    between atoms: _438  and  _439
REMARK  183  A    between atoms: _439  and  _440
REMARK  184  A    between atoms: _440  and  _441
REMARK  185  A    between atoms: _450  and  _452
REMARK  186  A    between atoms: _452  and  _453
REMARK  187  A    between atoms: _452  and  _455
REMARK  188  A    between atoms: _458  and  _460
REMARK  189  A    between atoms: _460  and  _461
REMARK  190  A    between atoms: _460  and  _463
REMARK  191  A    between atoms: _463  and  _464
REMARK  192  A    between atoms: _467  and  _469
REMARK  193  A    between atoms: _469  and  _470
REMARK  194  A    between atoms: _469  and  _472
REMARK  195  A    between atoms: _474  and  _476
REMARK  196  A    between atoms: _476  and  _477
REMARK  197  A    between atoms: _476  and  _479
REMARK  198  A    between atoms: _479  and  _480
REMARK  199  A    between atoms: _490  and  _492
REMARK  200  A    between atoms: _492  and  _493
REMARK  201  A    between atoms: _492  and  _495
REMARK  202  A    between atoms: _495  and  _496
REMARK  203  A    between atoms: _496  and  _497
REMARK  204  A    between atoms: _497  and  _498
REMARK  205  A    between atoms: _498  and  _499
REMARK  206  A    between atoms: _503  and  _505
REMARK  207  A    between atoms: _505  and  _506
REMARK  208  A    between atoms: _505  and  _508
REMARK  209  A    between atoms: _508  and  _509
REMARK  210  A    between atoms: _512  and  _513
REMARK  211  A    between atoms: _519  and  _520
REMARK  212  A    between atoms: _525  and  _527
REMARK  213  A    between atoms: _527  and  _528
REMARK  214  A    between atoms: _527  and  _530
REMARK  215  A    between atoms: _530  and  _531
REMARK  216  A    between atoms: _531  and  _532
REMARK  217  A    between atoms: _535  and  _537
REMARK  218  A    between atoms: _537  and  _538
REMARK  219  A    between atoms: _537  and  _540
REMARK  220  A    between atoms: _540  and  _541
REMARK  221  A    between atoms: _541  and  _542
REMARK  222  A    between atoms: _542  and  _543
REMARK  223  A    between atoms: _552  and  _554
REMARK  224  A    between atoms: _554  and  _555
REMARK  225  A    between atoms: _554  and  _557
REMARK  226  A    between atoms: _557  and  _558
REMARK  227  A    between atoms: _561  and  _563
REMARK  228  A    between atoms: _563  and  _564
REMARK  229  A    between atoms: _563  and  _566
REMARK  230  A    between atoms: _566  and  _567
REMARK  231  A    between atoms: _569  and  _571
REMARK  232  A    between atoms: _571  and  _572
REMARK  233  A    between atoms: _571  and  _574
REMARK  234  A    between atoms: _574  and  _575
REMARK  235  A    between atoms: _575  and  _576
REMARK  236  A    between atoms: _576  and  _577
REMARK  237  A    between atoms: _577  and  _578
REMARK  238  A    between atoms: _582  and  _584
REMARK  239  A    between atoms: _584  and  _585
REMARK  240  A    between atoms: _584  and  _587
REMARK  241  A    between atoms: _587  and  _588
REMARK  242  A    between atoms: _591  and  _593
REMARK  243  A    between atoms: _593  and  _594
REMARK  244  A    between atoms: _596  and  _598
REMARK  245  A    between atoms: _598  and  _599
REMARK  246  A    between atoms: _598  and  _601
REMARK  247  A    between atoms: _601  and  _602
REMARK  248  A    between atoms: _604  and  _606
REMARK  249  A    between atoms: _606  and  _607
REMARK  250  A    between atoms: _609  and  _611
REMARK  251  A    between atoms: _611  and  _612
REMARK  252  A    between atoms: _611  and  _614
REMARK  253  A    between atoms: _614  and  _615
REMARK  254  A    between atoms: _620  and  _622
REMARK  255  A    between atoms: _622  and  _623
REMARK  256  A    between atoms: _622  and  _625
REMARK  257  A    between atoms: _625  and  _626
REMARK  258  A    between atoms: _629  and  _631
REMARK  259  A    between atoms: _631  and  _632
REMARK  260  A    between atoms: _631  and  _634
REMARK  261  A    between atoms: _634  and  _635
REMARK  262  A    between atoms: _641  and  _643
REMARK  263  A    between atoms: _643  and  _644
REMARK  264  A    between atoms: _643  and  _646
REMARK  265  A    between atoms: _646  and  _647
REMARK  266  A    between atoms: _647  and  _648
REMARK  267  A    between atoms: _651  and  _653
REMARK  268  A    between atoms: _653  and  _654
REMARK  269  A    between atoms: _653  and  _656
REMARK  270  A    between atoms: _656  and  _657
REMARK  271  A    between atoms: _657  and  _658
REMARK  272  A    between atoms: _663  and  _665
REMARK  273  A    between atoms: _665  and  _666
REMARK  274  A    between atoms: _665  and  _668
REMARK  275  A    between atoms: _668  and  _669
REMARK  276  A    between atoms: _669  and  _670
REMARK  277  A    between atoms: _670  and  _671
REMARK  278  A    between atoms: _680  and  _682
REMARK  279  A    between atoms: _682  and  _683
REMARK  280  A    between atoms: _682  and  _685
REMARK  281  A    between atoms: _685  and  _686
REMARK  282  A    between atoms: _686  and  _687
REMARK  283  A    between atoms: _687  and  _688
REMARK  284  A    between atoms: _697  and  _699
REMARK  285  A    between atoms: _699  and  _700
REMARK  286  A    between atoms: _699  and  _702
REMARK  287  A    between atoms: _702  and  _703
REMARK  288  A    between atoms: _708  and  _709
REMARK  289  A    between atoms: _711  and  _713
REMARK  290  A    between atoms: _713  and  _714
REMARK  291  A    between atoms: _713  and  _716
REMARK  292  A    between atoms: _716  and  _717
REMARK  293  A    between atoms: _720  and  _722
REMARK  294  A    between atoms: _722  and  _723
REMARK  295  A    between atoms: _722  and  _725
REMARK  296  A    between atoms: _725  and  _726
REMARK  297  A    between atoms: _726  and  _727
REMARK  298  A    between atoms: _727  and  _728
REMARK  299  A    between atoms: _728  and  _729
REMARK  300  A    between atoms: _733  and  _735
REMARK  301  A    between atoms: _735  and  _736
REMARK  302  A    between atoms: _735  and  _738
REMARK  303  A    between atoms: _738  and  _739
REMARK  304  A    between atoms: _744  and  _746
REMARK  305  A    between atoms: _746  and  _747
REMARK  306  A    between atoms: _746  and  _749
REMARK  307  A    between atoms: _749  and  _750
REMARK  308  A    between atoms: _760  and  _762
REMARK  309  A    between atoms: _762  and  _763
REMARK  310  A    between atoms: _762  and  _765
REMARK  311  A    between atoms: _765  and  _766
REMARK  312  A    between atoms: _766  and  _767
REMARK  313  A    between atoms: _770  and  _772
REMARK  314  A    between atoms: _772  and  _773
REMARK  315  A    between atoms: _772  and  _775
REMARK  316  A    between atoms: _775  and  _776
REMARK  317  A    between atoms: _779  and  _781
REMARK  318  A    between atoms: _781  and  _782
REMARK  319  A    between atoms: _781  and  _784
REMARK  320  A    between atoms: _784  and  _785
REMARK  321  A    between atoms: _790  and  _792
REMARK  322  A    between atoms: _792  and  _793
REMARK  323  A    between atoms: _792  and  _795
REMARK  324  A    between atoms: _795  and  _796
REMARK  325  A    between atoms: _802  and  _804
REMARK  326  A    between atoms: _804  and  _805
REMARK  327  A    between atoms: _804  and  _807
REMARK  328  A    between atoms: _807  and  _808
REMARK  329  A    between atoms: _810  and  _812
REMARK  330  A    between atoms: _812  and  _813
REMARK  331  A    between atoms: _815  and  _817
REMARK  332  A    between atoms: _817  and  _818
REMARK  333  A    between atoms: _817  and  _820
REMARK  334  A    between atoms: _820  and  _821
REMARK  335  A    between atoms: _826  and  _827
REMARK  336  A    between atoms: _829  and  _831
REMARK  337  A    between atoms: _831  and  _832
REMARK  338  A    between atoms: _831  and  _834
REMARK  339  A    between atoms: _834  and  _835
REMARK  340  A    between atoms: _840  and  _841
REMARK  341  A    between atoms: _843  and  _845
REMARK  342  A    between atoms: _845  and  _846
REMARK  343  A    between atoms: _845  and  _848
REMARK  344  A    between atoms: _848  and  _849
REMARK  345  A    between atoms: _853  and  ZN_1037
REMARK  346  A    between atoms: _854  and  _856
REMARK  347  A    between atoms: _856  and  _857
REMARK  348  A    between atoms: _856  and  _859
REMARK  349  A    between atoms: _859  and  _860
REMARK  350  A    between atoms: _860  and  _861
REMARK  351  A    between atoms: _864  and  _866
REMARK  352  A    between atoms: _866  and  _867
REMARK  353  A    between atoms: _866  and  _869
REMARK  354  A    between atoms: _869  and  _870
REMARK  355  A    between atoms: _870  and  _871
REMARK  356  A    between atoms: _871  and  _872
REMARK  357  A    between atoms: _881  and  _883
REMARK  358  A    between atoms: _883  and  _884
REMARK  359  A    between atoms: _883  and  _886
REMARK  360  A    between atoms: _886  and  _887
REMARK  361  A    between atoms: _887  and  _888
REMARK  362  A    between atoms: _888  and  _889
REMARK  363  A    between atoms: _889  and  _890
REMARK  364  A    between atoms: _894  and  _896
REMARK  365  A    between atoms: _896  and  _897
REMARK  366  A    between atoms: _896  and  _899
REMARK  367  A    between atoms: _899  and  _900
REMARK  368  A    between atoms: _905  and  _906
REMARK  369  A    between atoms: _908  and  _910
REMARK  370  A    between atoms: _910  and  _911
REMARK  371  A    between atoms: _910  and  _913
REMARK  372  A    between atoms: _913  and  _914
REMARK  373  A    between atoms: _914  and  _915
REMARK  374  A    between atoms: _915  and  _916
REMARK  375  A    between atoms: _916  and  _917
REMARK  376  A    between atoms: _921  and  _923
REMARK  377  A    between atoms: _923  and  _924
REMARK  378  A    between atoms: _923  and  _926
REMARK  379  A    between atoms: _926  and  _927
REMARK  380  A    between atoms: _932  and  _933
REMARK  381  A    between atoms: _935  and  _937
REMARK  382  A    between atoms: _937  and  _938
REMARK  383  A    between atoms: _937  and  _940
REMARK  384  A    between atoms: _940  and  _941
REMARK  385  A    between atoms: _946  and  _947
REMARK  386  A    between atoms: _949  and  _951
REMARK  387  A    between atoms: _951  and  _952
REMARK  388  A    between atoms: _956  and  _957
REMARK  389  A    between atoms: _962  and  _964
REMARK  390  A    between atoms: _964  and  _965
REMARK  391  A    between atoms: _964  and  _967
REMARK  392  A    between atoms: _967  and  _968
REMARK  393  A    between atoms: _970  and  _972
REMARK  394  A    between atoms: _972  and  _973
REMARK  395  A    between atoms: _972  and  _975
REMARK  396  A    between atoms: _975  and  _976
REMARK  397  A    between atoms: _981  and  _983
REMARK  398  A    between atoms: _983  and  _984
REMARK  399  A    between atoms: _983  and  _986
REMARK  400  A    between atoms: _986  and  _987
REMARK  401  A    between atoms: _987  and  _988
REMARK  402  A    between atoms: _988  and  _989
REMARK  403  A    between atoms: _989  and  _990
REMARK  404  A    between atoms: _994  and  _996
REMARK  405  A    between atoms: _996  and  _997
REMARK  406  A    between atoms: _996  and  _999
REMARK  407  A    between atoms: _999  and  _1000
REMARK  408  A    between atoms: _1005  and  _1006
REMARK  409  A    between atoms: _1008  and  _1010
REMARK  410  A    between atoms: _1010  and  _1011
REMARK  411  A    between atoms: _1014  and  _1016
REMARK  412  A    between atoms: _1016  and  _1017
REMARK  413  A    between atoms: _1019  and  _1021
REMARK  414  A    between atoms: _1021  and  _1022
REMARK  415  A    between atoms: _1021  and  _1024
REMARK  416  A    between atoms: _1024  and  _1025
REMARK  417  A    between atoms: _1025  and  _1026
REMARK  418  A    between atoms: _1029  and  _1031
REMARK  419  A    between atoms: _1031  and  _1032
REMARK  420  A    between atoms: _1031  and  _1034
REMARK  421  A    between atoms: _1034  and  _1035
REMARK                            x       y       z     vdW  Elec       q    Type
REMARK                         _______ _______ _______ _____ _____    ______ ____
ROOT
ATOM      1  O   HOH     1      25.445  56.043  37.128  0.00  0.00    +0.000 OA
ENDROOT
TORSDOF 0
REMARK  Name = ../refined-set-2016/2xef/2xef_pocket.pdb
REMARK  421 active torsions:
REMARK  status: ('A' for Active; 'I' for Inactive)
REMARK    1  A    between atoms: _1  and  _3
REMARK    2  A    between atoms: _3  and  _4
REMARK    3  A    between atoms: _7  and  _9
REMARK    4  A    between atoms: _9  and  _10
REMARK    5  A    between atoms: _9  and  _12
REMARK    6  A    between atoms: _12  and  _13
REMARK    7  A    between atoms: _19  and  _21
REMARK    8  A    between atoms: _21  and  _22
REMARK    9  A    between atoms: _21  and  _24
REMARK   10  A    between atoms: _24  and  _25
REMARK   11  A    between atoms: _30  and  _31
REMARK   12  A    between atoms: _33  and  _35
REMARK   13  A    between atoms: _35  and  _36
REMARK   14  A    between atoms: _38  and  _40
REMARK   15  A    between atoms: _40  and  _41
REMARK   16  A    between atoms: _40  and  _43
REMARK   17  A    between atoms: _43  and  _44
REMARK   18  A    between atoms: _44  and  _45
REMARK   19  A    between atoms: _45  and  _46
REMARK   20  A    between atoms: _46  and  _47
REMARK   21  A    between atoms: _51  and  _53
REMARK   22  A    between atoms: _53  and  _54
REMARK   23  A    between atoms: _53  and  _56
REMARK   24  A    between atoms: _59  and  _61
REMARK   25  A    between atoms: _61  and  _62
REMARK   26  A    between atoms: _61  and  _64
REMARK   27  A    between atoms: _64  and  _65
REMARK   28  A    between atoms: _71  and  _73
REMARK   29  A    between atoms: _73  and  _74
REMARK   30  A    between atoms: _73  and  _76
REMARK   31  A    between atoms: _76  and  _77
REMARK   32  A    between atoms: _77  and  _78
REMARK   33  A    between atoms: _78  and  _79
REMARK   34  A    between atoms: _88  and  _90
REMARK   35  A    between atoms: _90  and  _91
REMARK   36  A    between atoms: _93  and  _95
REMARK   37  A    between atoms: _95  and  _96
REMARK   38  A    between atoms: _95  and  _98
REMARK   39  A    between atoms: _98  and  _99
REMARK   40  A    between atoms: _99  and  _100
REMARK   41  A    between atoms: _100  and  _101
REMARK   42  A    between atoms: _101  and  _102
REMARK   43  A    between atoms: _106  and  _108
REMARK   44  A    between atoms: _108  and  _109
REMARK   45  A    between atoms: _108  and  _111
REMARK   46  A    between atoms: _111  and  _112
REMARK   47  A    between atoms: _117  and  _118
REMARK   48  A    between atoms: _120  and  _122
REMARK   49  A    between atoms: _122  and  _123
REMARK   50  A    between atoms: _122  and  _125
REMARK   51  A    between atoms: _125  and  _126
REMARK   52  A    between atoms: _126  and  _127
REMARK   53  A    between atoms: _132  and  _134
REMARK   54  A    between atoms: _134  and  _135
REMARK   55  A    between atoms: _134  and  _137
REMARK   56  A    between atoms: _137  and  _138
REMARK   57  A    between atoms: _138  and  _139
REMARK   58  A    between atoms: _139  and  _140
REMARK   59  A    between atoms: _149  and  _151
REMARK   60  A    between atoms: _151  and  _152
REMARK   61  A    between atoms: _154  and  _156
REMARK   62  A    between atoms: _156  and  _157
REMARK   63  A    between atoms: _156  and  _159
REMARK   64  A    between atoms: _159  and  _160
REMARK   65  A    between atoms: _165  and  _167
REMARK   66  A    between atoms: _167  and  _168
REMARK   67  A    between atoms: _167  and  _170
REMARK   68  A    between atoms: _170  and  _171
REMARK   69  A    between atoms: _174  and  _176
REMARK   70  A    between atoms: _176  and  _177
REMARK   71  A    between atoms: _176  and  _179
REMARK   72  A    between atoms: _179  and  _180
REMARK   73  A    between atoms: _183  and  _185
REMARK   74  A    between atoms: _185  and  _186
REMARK   75  A    between atoms: _185  and  _188
REMARK   76  A    between atoms: _188  and  _189
REMARK   77  A    between atoms: _194  and  _196
REMARK   78  A    between atoms: _196  and  _197
REMARK   79  A    between atoms: _196  and  _199
REMARK   80  A    between atoms: _199  and  _200
REMARK   81  A    between atoms: _203  and  _205
REMARK   82  A    between atoms: _205  and  _206
REMARK   83  A    between atoms: _205  and  _208
REMARK   84  A    between atoms: _208  and  _209
REMARK   85  A    between atoms: _214  and  _216
REMARK   86  A    between atoms: _216  and  _217
REMARK   87  A    between atoms: _219  and  _221
REMARK   88  A    between atoms: _221  and  _222
REMARK   89  A    between atoms: _224  and  _226
REMARK   90  A    between atoms: _226  and  _227
REMARK   91  A    between atoms: _226  and  _229
REMARK   92  A    between atoms: _229  and  _230
REMARK   93  A    between atoms: _234  and  ZN_1038
REMARK   94  A    between atoms: _235  and  _237
REMARK   95  A    between atoms: _237  and  _238
REMARK   96  A    between atoms: _237  and  _240
REMARK   97  A    between atoms: _240  and  _241
REMARK   98  A    between atoms: _244  and  _246
REMARK   99  A    between atoms: _246  and  _247
REMARK  100  A    between atoms: _246  and  _249
REMARK  101  A    between atoms: _249  and  _250
REMARK  102  A    between atoms: _260  and  _262
REMARK  103  A    between atoms: _262  and  _263
REMARK  104  A    between atoms: _262  and  _265
REMARK  105  A    between atoms: _265  and  _266
REMARK  106  A    between atoms: _269  and  _271
REMARK  107  A    between atoms: _271  and  _272
REMARK  108  A    between atoms: _271  and  _274
REMARK  109  A    between atoms: _274  and  _275
REMARK  110  A    between atoms: _279  and  _280
REMARK  111  A    between atoms: _285  and  _287
REMARK  112  A    between atoms: _287  and  _288
REMARK  113  A    between atoms: _291  and  _293
REMARK  114  A    between atoms: _293  and  _294
REMARK  115  A    between atoms: _293  and  _296
REMARK  116  A    between atoms: _296  and  _297
REMARK  117  A    between atoms: _297  and  _298
REMARK  118  A    between atoms: _301  and  _303
REMARK  119  A    between atoms: _303  and  _304
REMARK  120  A    between atoms: _303  and  _306
REMARK  121  A    between atoms: _306  and  _307
REMARK  122  A    between atoms: _307  and  _308
REMARK  123  A    between atoms: _308  and  _310
REMARK  124  A    between atoms: _310  and  ZN_1037
REMARK  125  A    between atoms: _311  and  _313
REMARK  126  A    between atoms: _313  and  _314
REMARK  127  A    between atoms: _313  and  _316
REMARK  128  A    between atoms: _316  and  _317
REMARK  129  A    between atoms: _323  and  _325
REMARK  130  A    between atoms: _325  and  _326
REMARK  131  A    between atoms: _328  and  _330
REMARK  132  A    between atoms: _330  and  _331
REMARK  133  A    between atoms: _330  and  _333
REMARK  134  A    between atoms: _333  and  _334
REMARK  135  A    between atoms: _337  and  _339
REMARK  136  A    between atoms: _339  and  _340
REMARK  137  A    between atoms: _339  and  _342
REMARK  138  A    between atoms: _342  and  _343
REMARK  139  A    between atoms: _346  and  _348
REMARK  140  A    between atoms: _348  and  _349
REMARK  141  A    between atoms: _348  and  _351
REMARK  142  A    between atoms: _351  and  _352
REMARK  143  A    between atoms: _357  and  _359
REMARK  144  A    between atoms: _359  and  _360
REMARK  145  A    between atoms: _359  and  _362
REMARK  146  A    between atoms: _362  and  _363
REMARK  147  A    between atoms: _363  and  _365
REMARK  148  A    between atoms: _365  and  ZN_1038
REMARK  149  A    between atoms: _366  and  _368
REMARK  150  A    between atoms: _368  and  _369
REMARK  151  A    between atoms: _368  and  _371
REMARK  152  A    between atoms: _371  and  _372
REMARK  153  A    between atoms: _374  and  _376
REMARK  154  A    between atoms: _376  and  _377
REMARK  155  A    between atoms: _376  and  _379
REMARK  156  A    between atoms: _379  and  _380
REMARK  157  A    between atoms: _382  and  _384
REMARK  158  A    between atoms: _384  and  _385
REMARK  159  A    between atoms: _384  and  _387
REMARK  160  A    between atoms: _387  and  _388
REMARK  161  A    between atoms: _391  and  _393
REMARK  162  A    between atoms: _393  and  _394
REMARK  163  A    between atoms: _393  and  _396
REMARK  164  A    between atoms: _396  and  _397
REMARK  165  A    between atoms: _397  and  _398
REMARK  166  A    between atoms: _401  and  _403
REMARK  167  A    between atoms: _403  and  _404
REMARK  168  A    between atoms: _403  and  _406
REMARK  169  A    between atoms: _406  and  _407
REMARK  170  A    between atoms: _412  and  _413
REMARK  171  A    between atoms: _415  and  _417
REMARK  172  A    between atoms: _417  and  _418
REMARK  173  A    between atoms: _417  and  _420
REMARK  174  A    between atoms: _420  and  _421
REMARK  175  A    between atoms: _424  and  _426
REMARK  176  A    between atoms: _426  and  _427
REMARK  177  A    between atoms: _426  and  _429
REMARK  178  A    between atoms: _429  and  _430
REMARK  179  A    between atoms: _433  and  _435
REMARK  180  A    between atoms: _435  and  _436
REMARK  181  A    between atoms: _435  and  _438
REMARK  182  A    between atoms: _438  and  _439
REMARK  183  A    between atoms: _439  and  _440
REMARK  184  A    between atoms: _440  and  _441
REMARK  185  A    between atoms: _450  and  _452
REMARK  186  A    between atoms: _452  and  _453
REMARK  187  A    between atoms: _452  and  _455
REMARK  188  A    between atoms: _458  and  _460
REMARK  189  A    between atoms: _460  and  _461
REMARK  190  A    between atoms: _460  and  _463
REMARK  191  A    between atoms: _463  and  _464
REMARK  192  A    between atoms: _467  and  _469
REMARK  193  A    between atoms: _469  and  _470
REMARK  194  A    between atoms: _469  and  _472
REMARK  195  A    between atoms: _474  and  _476
REMARK  196  A    between atoms: _476  and  _477
REMARK  197  A    between atoms: _476  and  _479
REMARK  198  A    between atoms: _479  and  _480
REMARK  199  A    between atoms: _490  and  _492
REMARK  200  A    between atoms: _492  and  _493
REMARK  201  A    between atoms: _492  and  _495
REMARK  202  A    between atoms: _495  and  _496
REMARK  203  A    between atoms: _496  and  _497
REMARK  204  A    between atoms: _497  and  _498
REMARK  205  A    between atoms: _498  and  _499
REMARK  206  A    between atoms: _503  and  _505
REMARK  207  A    between atoms: _505  and  _506
REMARK  208  A    between atoms: _505  and  _508
REMARK  209  A    between atoms: _508  and  _509
REMARK  210  A    between atoms: _512  and  _513
REMARK  211  A    between atoms: _519  and  _520
REMARK  212  A    between atoms: _525  and  _527
REMARK  213  A    between atoms: _527  and  _528
REMARK  214  A    between atoms: _527  and  _530
REMARK  215  A    between atoms: _530  and  _531
REMARK  216  A    between atoms: _531  and  _532
REMARK  217  A    between atoms: _535  and  _537
REMARK  218  A    between atoms: _537  and  _538
REMARK  219  A    between atoms: _537  and  _540
REMARK  220  A    between atoms: _540  and  _541
REMARK  221  A    between atoms: _541  and  _542
REMARK  222  A    between atoms: _542  and  _543
REMARK  223  A    between atoms: _552  and  _554
REMARK  224  A    between atoms: _554  and  _555
REMARK  225  A    between atoms: _554  and  _557
REMARK  226  A    between atoms: _557  and  _558
REMARK  227  A    between atoms: _561  and  _563
REMARK  228  A    between atoms: _563  and  _564
REMARK  229  A    between atoms: _563  and  _566
REMARK  230  A    between atoms: _566  and  _567
REMARK  231  A    between atoms: _569  and  _571
REMARK  232  A    between atoms: _571  and  _572
REMARK  233  A    between atoms: _571  and  _574
REMARK  234  A    between atoms: _574  and  _575
REMARK  235  A    between atoms: _575  and  _576
REMARK  236  A    between atoms: _576  and  _577
REMARK  237  A    between atoms: _577  and  _578
REMARK  238  A    between atoms: _582  and  _584
REMARK  239  A    between atoms: _584  and  _585
REMARK  240  A    between atoms: _584  and  _587
REMARK  241  A    between atoms: _587  and  _588
REMARK  242  A    between atoms: _591  and  _593
REMARK  243  A    between atoms: _593  and  _594
REMARK  244  A    between atoms: _596  and  _598
REMARK  245  A    between atoms: _598  and  _599
REMARK  246  A    between atoms: _598  and  _601
REMARK  247  A    between atoms: _601  and  _602
REMARK  248  A    between atoms: _604  and  _606
REMARK  249  A    between atoms: _606  and  _607
REMARK  250  A    between atoms: _609  and  _611
REMARK  251  A    between atoms: _611  and  _612
REMARK  252  A    between atoms: _611  and  _614
REMARK  253  A    between atoms: _614  and  _615
REMARK  254  A    between atoms: _620  and  _622
REMARK  255  A    between atoms: _622  and  _623
REMARK  256  A    between atoms: _622  and  _625
REMARK  257  A    between atoms: _625  and  _626
REMARK  258  A    between atoms: _629  and  _631
REMARK  259  A    between atoms: _631  and  _632
REMARK  260  A    between atoms: _631  and  _634
REMARK  261  A    between atoms: _634  and  _635
REMARK  262  A    between atoms: _641  and  _643
REMARK  263  A    between atoms: _643  and  _644
REMARK  264  A    between atoms: _643  and  _646
REMARK  265  A    between atoms: _646  and  _647
REMARK  266  A    between atoms: _647  and  _648
REMARK  267  A    between atoms: _651  and  _653
REMARK  268  A    between atoms: _653  and  _654
REMARK  269  A    between atoms: _653  and  _656
REMARK  270  A    between atoms: _656  and  _657
REMARK  271  A    between atoms: _657  and  _658
REMARK  272  A    between atoms: _663  and  _665
REMARK  273  A    between atoms: _665  and  _666
REMARK  274  A    between atoms: _665  and  _668
REMARK  275  A    between atoms: _668  and  _669
REMARK  276  A    between atoms: _669  and  _670
REMARK  277  A    between atoms: _670  and  _671
REMARK  278  A    between atoms: _680  and  _682
REMARK  279  A    between atoms: _682  and  _683
REMARK  280  A    between atoms: _682  and  _685
REMARK  281  A    between atoms: _685  and  _686
REMARK  282  A    between atoms: _686  and  _687
REMARK  283  A    between atoms: _687  and  _688
REMARK  284  A    between atoms: _697  and  _699
REMARK  285  A    between atoms: _699  and  _700
REMARK  286  A    between atoms: _699  and  _702
REMARK  287  A    between atoms: _702  and  _703
REMARK  288  A    between atoms: _708  and  _709
REMARK  289  A    between atoms: _711  and  _713
REMARK  290  A    between atoms: _713  and  _714
REMARK  291  A    between atoms: _713  and  _716
REMARK  292  A    between atoms: _716  and  _717
REMARK  293  A    between atoms: _720  and  _722
REMARK  294  A    between atoms: _722  and  _723
REMARK  295  A    between atoms: _722  and  _725
REMARK  296  A    between atoms: _725  and  _726
REMARK  297  A    between atoms: _726  and  _727
REMARK  298  A    between atoms: _727  and  _728
REMARK  299  A    between atoms: _728  and  _729
REMARK  300  A    between atoms: _733  and  _735
REMARK  301  A    between atoms: _735  and  _736
REMARK  302  A    between atoms: _735  and  _738
REMARK  303  A    between atoms: _738  and  _739
REMARK  304  A    between atoms: _744  and  _746
REMARK  305  A    between atoms: _746  and  _747
REMARK  306  A    between atoms: _746  and  _749
REMARK  307  A    between atoms: _749  and  _750
REMARK  308  A    between atoms: _760  and  _762
REMARK  309  A    between atoms: _762  and  _763
REMARK  310  A    between atoms: _762  and  _765
REMARK  311  A    between atoms: _765  and  _766
REMARK  312  A    between atoms: _766  and  _767
REMARK  313  A    between atoms: _770  and  _772
REMARK  314  A    between atoms: _772  and  _773
REMARK  315  A    between atoms: _772  and  _775
REMARK  316  A    between atoms: _775  and  _776
REMARK  317  A    between atoms: _779  and  _781
REMARK  318  A    between atoms: _781  and  _782
REMARK  319  A    between atoms: _781  and  _784
REMARK  320  A    between atoms: _784  and  _785
REMARK  321  A    between atoms: _790  and  _792
REMARK  322  A    between atoms: _792  and  _793
REMARK  323  A    between atoms: _792  and  _795
REMARK  324  A    between atoms: _795  and  _796
REMARK  325  A    between atoms: _802  and  _804
REMARK  326  A    between atoms: _804  and  _805
REMARK  327  A    between atoms: _804  and  _807
REMARK  328  A    between atoms: _807  and  _808
REMARK  329  A    between atoms: _810  and  _812
REMARK  330  A    between atoms: _812  and  _813
REMARK  331  A    between atoms: _815  and  _817
REMARK  332  A    between atoms: _817  and  _818
REMARK  333  A    between atoms: _817  and  _820
REMARK  334  A    between atoms: _820  and  _821
REMARK  335  A    between atoms: _826  and  _827
REMARK  336  A    between atoms: _829  and  _831
REMARK  337  A    between atoms: _831  and  _832
REMARK  338  A    between atoms: _831  and  _834
REMARK  339  A    between atoms: _834  and  _835
REMARK  340  A    between atoms: _840  and  _841
REMARK  341  A    between atoms: _843  and  _845
REMARK  342  A    between atoms: _845  and  _846
REMARK  343  A    between atoms: _845  and  _848
REMARK  344  A    between atoms: _848  and  _849
REMARK  345  A    between atoms: _853  and  ZN_1037
REMARK  346  A    between atoms: _854  and  _856
REMARK  347  A    between atoms: _856  and  _857
REMARK  348  A    between atoms: _856  and  _859
REMARK  349  A    between atoms: _859  and  _860
REMARK  350  A    between atoms: _860  and  _861
REMARK  351  A    between atoms: _864  and  _866
REMARK  352  A    between atoms: _866  and  _867
REMARK  353  A    between atoms: _866  and  _869
REMARK  354  A    between atoms: _869  and  _870
REMARK  355  A    between atoms: _870  and  _871
REMARK  356  A    between atoms: _871  and  _872
REMARK  357  A    between atoms: _881  and  _883
REMARK  358  A    between atoms: _883  and  _884
REMARK  359  A    between atoms: _883  and  _886
REMARK  360  A    between atoms: _886  and  _887
REMARK  361  A    between atoms: _887  and  _888
REMARK  362  A    between atoms: _888  and  _889
REMARK  363  A    between atoms: _889  and  _890
REMARK  364  A    between atoms: _894  and  _896
REMARK  365  A    between atoms: _896  and  _897
REMARK  366  A    between atoms: _896  and  _899
REMARK  367  A    between atoms: _899  and  _900
REMARK  368  A    between atoms: _905  and  _906
REMARK  369  A    between atoms: _908  and  _910
REMARK  370  A    between atoms: _910  and  _911
REMARK  371  A    between atoms: _910  and  _913
REMARK  372  A    between atoms: _913  and  _914
REMARK  373  A    between atoms: _914  and  _915
REMARK  374  A    between atoms: _915  and  _916
REMARK  375  A    between atoms: _916  and  _917
REMARK  376  A    between atoms: _921  and  _923
REMARK  377  A    between atoms: _923  and  _924
REMARK  378  A    between atoms: _923  and  _926
REMARK  379  A    between atoms: _926  and  _927
REMARK  380  A    between atoms: _932  and  _933
REMARK  381  A    between atoms: _935  and  _937
REMARK  382  A    between atoms: _937  and  _938
REMARK  383  A    between atoms: _937  and  _940
REMARK  384  A    between atoms: _940  and  _941
REMARK  385  A    between atoms: _946  and  _947
REMARK  386  A    between atoms: _949  and  _951
REMARK  387  A    between atoms: _951  and  _952
REMARK  388  A    between atoms: _956  and  _957
REMARK  389  A    between atoms: _962  and  _964
REMARK  390  A    between atoms: _964  and  _965
REMARK  391  A    between atoms: _964  and  _967
REMARK  392  A    between atoms: _967  and  _968
REMARK  393  A    between atoms: _970  and  _972
REMARK  394  A    between atoms: _972  and  _973
REMARK  395  A    between atoms: _972  and  _975
REMARK  396  A    between atoms: _975  and  _976
REMARK  397  A    between atoms: _981  and  _983
REMARK  398  A    between atoms: _983  and  _984
REMARK  399  A    between atoms: _983  and  _986
REMARK  400  A    between atoms: _986  and  _987
REMARK  401  A    between atoms: _987  and  _988
REMARK  402  A    between atoms: _988  and  _989
REMARK  403  A    between atoms: _989  and  _990
REMARK  404  A    between atoms: _994  and  _996
REMARK  405  A    between atoms: _996  and  _997
REMARK  406  A    between atoms: _996  and  _999
REMARK  407  A    between atoms: _999  and  _1000
REMARK  408  A    between atoms: _1005  and  _1006
REMARK  409  A    between atoms: _1008  and  _1010
REMARK  410  A    between atoms: _1010  and  _1011
REMARK  411  A    between atoms: _1014  and  _1016
REMARK  412  A    between atoms: _1016  and  _1017
REMARK  413  A    between atoms: _1019  and  _1021
REMARK  414  A    between atoms: _1021  and  _1022
REMARK  415  A    between atoms: _1021  and  _1024
REMARK  416  A    between atoms: _1024  and  _1025
REMARK  417  A    between atoms: _1025  and  _1026
REMARK  418  A    between atoms: _1029  and  _1031
REMARK  419  A    between atoms: _1031  and  _1032
REMARK  420  A    between atoms: _1031  and  _1034
REMARK  421  A    between atoms: _1034  and  _1035
REMARK                            x       y       z     vdW  Elec       q    Type
REMARK                         _______ _______ _______ _____ _____    ______ ____
ROOT
ATOM      1  O   HOH     1      12.007  50.061  36.340  0.00  0.00    +0.000 OA
ENDROOT
TORSDOF 0
REMARK  Name = ../refined-set-2016/2xef/2xef_pocket.pdb
REMARK  421 active torsions:
REMARK  status: ('A' for Active; 'I' for Inactive)
REMARK    1  A    between atoms: _1  and  _3
REMARK    2  A    between atoms: _3  and  _4
REMARK    3  A    between atoms: _7  and  _9
REMARK    4  A    between atoms: _9  and  _10
REMARK    5  A    between atoms: _9  and  _12
REMARK    6  A    between atoms: _12  and  _13
REMARK    7  A    between atoms: _19  and  _21
REMARK    8  A    between atoms: _21  and  _22
REMARK    9  A    between atoms: _21  and  _24
REMARK   10  A    between atoms: _24  and  _25
REMARK   11  A    between atoms: _30  and  _31
REMARK   12  A    between atoms: _33  and  _35
REMARK   13  A    between atoms: _35  and  _36
REMARK   14  A    between atoms: _38  and  _40
REMARK   15  A    between atoms: _40  and  _41
REMARK   16  A    between atoms: _40  and  _43
REMARK   17  A    between atoms: _43  and  _44
REMARK   18  A    between atoms: _44  and  _45
REMARK   19  A    between atoms: _45  and  _46
REMARK   20  A    between atoms: _46  and  _47
REMARK   21  A    between atoms: _51  and  _53
REMARK   22  A    between atoms: _53  and  _54
REMARK   23  A    between atoms: _53  and  _56
REMARK   24  A    between atoms: _59  and  _61
REMARK   25  A    between atoms: _61  and  _62
REMARK   26  A    between atoms: _61  and  _64
REMARK   27  A    between atoms: _64  and  _65
REMARK   28  A    between atoms: _71  and  _73
REMARK   29  A    between atoms: _73  and  _74
REMARK   30  A    between atoms: _73  and  _76
REMARK   31  A    between atoms: _76  and  _77
REMARK   32  A    between atoms: _77  and  _78
REMARK   33  A    between atoms: _78  and  _79
REMARK   34  A    between atoms: _88  and  _90
REMARK   35  A    between atoms: _90  and  _91
REMARK   36  A    between atoms: _93  and  _95
REMARK   37  A    between atoms: _95  and  _96
REMARK   38  A    between atoms: _95  and  _98
REMARK   39  A    between atoms: _98  and  _99
REMARK   40  A    between atoms: _99  and  _100
REMARK   41  A    between atoms: _100  and  _101
REMARK   42  A    between atoms: _101  and  _102
REMARK   43  A    between atoms: _106  and  _108
REMARK   44  A    between atoms: _108  and  _109
REMARK   45  A    between atoms: _108  and  _111
REMARK   46  A    between atoms: _111  and  _112
REMARK   47  A    between atoms: _117  and  _118
REMARK   48  A    between atoms: _120  and  _122
REMARK   49  A    between atoms: _122  and  _123
REMARK   50  A    between atoms: _122  and  _125
REMARK   51  A    between atoms: _125  and  _126
REMARK   52  A    between atoms: _126  and  _127
REMARK   53  A    between atoms: _132  and  _134
REMARK   54  A    between atoms: _134  and  _135
REMARK   55  A    between atoms: _134  and  _137
REMARK   56  A    between atoms: _137  and  _138
REMARK   57  A    between atoms: _138  and  _139
REMARK   58  A    between atoms: _139  and  _140
REMARK   59  A    between atoms: _149  and  _151
REMARK   60  A    between atoms: _151  and  _152
REMARK   61  A    between atoms: _154  and  _156
REMARK   62  A    between atoms: _156  and  _157
REMARK   63  A    between atoms: _156  and  _159
REMARK   64  A    between atoms: _159  and  _160
REMARK   65  A    between atoms: _165  and  _167
REMARK   66  A    between atoms: _167  and  _168
REMARK   67  A    between atoms: _167  and  _170
REMARK   68  A    between atoms: _170  and  _171
REMARK   69  A    between atoms: _174  and  _176
REMARK   70  A    between atoms: _176  and  _177
REMARK   71  A    between atoms: _176  and  _179
REMARK   72  A    between atoms: _179  and  _180
REMARK   73  A    between atoms: _183  and  _185
REMARK   74  A    between atoms: _185  and  _186
REMARK   75  A    between atoms: _185  and  _188
REMARK   76  A    between atoms: _188  and  _189
REMARK   77  A    between atoms: _194  and  _196
REMARK   78  A    between atoms: _196  and  _197
REMARK   79  A    between atoms: _196  and  _199
REMARK   80  A    between atoms: _199  and  _200
REMARK   81  A    between atoms: _203  and  _205
REMARK   82  A    between atoms: _205  and  _206
REMARK   83  A    between atoms: _205  and  _208
REMARK   84  A    between atoms: _208  and  _209
REMARK   85  A    between atoms: _214  and  _216
REMARK   86  A    between atoms: _216  and  _217
REMARK   87  A    between atoms: _219  and  _221
REMARK   88  A    between atoms: _221  and  _222
REMARK   89  A    between atoms: _224  and  _226
REMARK   90  A    between atoms: _226  and  _227
REMARK   91  A    between atoms: _226  and  _229
REMARK   92  A    between atoms: _229  and  _230
REMARK   93  A    between atoms: _234  and  ZN_1038
REMARK   94  A    between atoms: _235  and  _237
REMARK   95  A    between atoms: _237  and  _238
REMARK   96  A    between atoms: _237  and  _240
REMARK   97  A    between atoms: _240  and  _241
REMARK   98  A    between atoms: _244  and  _246
REMARK   99  A    between atoms: _246  and  _247
REMARK  100  A    between atoms: _246  and  _249
REMARK  101  A    between atoms: _249  and  _250
REMARK  102  A    between atoms: _260  and  _262
REMARK  103  A    between atoms: _262  and  _263
REMARK  104  A    between atoms: _262  and  _265
REMARK  105  A    between atoms: _265  and  _266
REMARK  106  A    between atoms: _269  and  _271
REMARK  107  A    between atoms: _271  and  _272
REMARK  108  A    between atoms: _271  and  _274
REMARK  109  A    between atoms: _274  and  _275
REMARK  110  A    between atoms: _279  and  _280
REMARK  111  A    between atoms: _285  and  _287
REMARK  112  A    between atoms: _287  and  _288
REMARK  113  A    between atoms: _291  and  _293
REMARK  114  A    between atoms: _293  and  _294
REMARK  115  A    between atoms: _293  and  _296
REMARK  116  A    between atoms: _296  and  _297
REMARK  117  A    between atoms: _297  and  _298
REMARK  118  A    between atoms: _301  and  _303
REMARK  119  A    between atoms: _303  and  _304
REMARK  120  A    between atoms: _303  and  _306
REMARK  121  A    between atoms: _306  and  _307
REMARK  122  A    between atoms: _307  and  _308
REMARK  123  A    between atoms: _308  and  _310
REMARK  124  A    between atoms: _310  and  ZN_1037
REMARK  125  A    between atoms: _311  and  _313
REMARK  126  A    between atoms: _313  and  _314
REMARK  127  A    between atoms: _313  and  _316
REMARK  128  A    between atoms: _316  and  _317
REMARK  129  A    between atoms: _323  and  _325
REMARK  130  A    between atoms: _325  and  _326
REMARK  131  A    between atoms: _328  and  _330
REMARK  132  A    between atoms: _330  and  _331
REMARK  133  A    between atoms: _330  and  _333
REMARK  134  A    between atoms: _333  and  _334
REMARK  135  A    between atoms: _337  and  _339
REMARK  136  A    between atoms: _339  and  _340
REMARK  137  A    between atoms: _339  and  _342
REMARK  138  A    between atoms: _342  and  _343
REMARK  139  A    between atoms: _346  and  _348
REMARK  140  A    between atoms: _348  and  _349
REMARK  141  A    between atoms: _348  and  _351
REMARK  142  A    between atoms: _351  and  _352
REMARK  143  A    between atoms: _357  and  _359
REMARK  144  A    between atoms: _359  and  _360
REMARK  145  A    between atoms: _359  and  _362
REMARK  146  A    between atoms: _362  and  _363
REMARK  147  A    between atoms: _363  and  _365
REMARK  148  A    between atoms: _365  and  ZN_1038
REMARK  149  A    between atoms: _366  and  _368
REMARK  150  A    between atoms: _368  and  _369
REMARK  151  A    between atoms: _368  and  _371
REMARK  152  A    between atoms: _371  and  _372
REMARK  153  A    between atoms: _374  and  _376
REMARK  154  A    between atoms: _376  and  _377
REMARK  155  A    between atoms: _376  and  _379
REMARK  156  A    between atoms: _379  and  _380
REMARK  157  A    between atoms: _382  and  _384
REMARK  158  A    between atoms: _384  and  _385
REMARK  159  A    between atoms: _384  and  _387
REMARK  160  A    between atoms: _387  and  _388
REMARK  161  A    between atoms: _391  and  _393
REMARK  162  A    between atoms: _393  and  _394
REMARK  163  A    between atoms: _393  and  _396
REMARK  164  A    between atoms: _396  and  _397
REMARK  165  A    between atoms: _397  and  _398
REMARK  166  A    between atoms: _401  and  _403
REMARK  167  A    between atoms: _403  and  _404
REMARK  168  A    between atoms: _403  and  _406
REMARK  169  A    between atoms: _406  and  _407
REMARK  170  A    between atoms: _412  and  _413
REMARK  171  A    between atoms: _415  and  _417
REMARK  172  A    between atoms: _417  and  _418
REMARK  173  A    between atoms: _417  and  _420
REMARK  174  A    between atoms: _420  and  _421
REMARK  175  A    between atoms: _424  and  _426
REMARK  176  A    between atoms: _426  and  _427
REMARK  177  A    between atoms: _426  and  _429
REMARK  178  A    between atoms: _429  and  _430
REMARK  179  A    between atoms: _433  and  _435
REMARK  180  A    between atoms: _435  and  _436
REMARK  181  A    between atoms: _435  and  _438
REMARK  182  A    between atoms: _438  and  _439
REMARK  183  A    between atoms: _439  and  _440
REMARK  184  A    between atoms: _440  and  _441
REMARK  185  A    between atoms: _450  and  _452
REMARK  186  A    between atoms: _452  and  _453
REMARK  187  A    between atoms: _452  and  _455
REMARK  188  A    between atoms: _458  and  _460
REMARK  189  A    between atoms: _460  and  _461
REMARK  190  A    between atoms: _460  and  _463
REMARK  191  A    between atoms: _463  and  _464
REMARK  192  A    between atoms: _467  and  _469
REMARK  193  A    between atoms: _469  and  _470
REMARK  194  A    between atoms: _469  and  _472
REMARK  195  A    between atoms: _474  and  _476
REMARK  196  A    between atoms: _476  and  _477
REMARK  197  A    between atoms: _476  and  _479
REMARK  198  A    between atoms: _479  and  _480
REMARK  199  A    between atoms: _490  and  _492
REMARK  200  A    between atoms: _492  and  _493
REMARK  201  A    between atoms: _492  and  _495
REMARK  202  A    between atoms: _495  and  _496
REMARK  203  A    between atoms: _496  and  _497
REMARK  204  A    between atoms: _497  and  _498
REMARK  205  A    between atoms: _498  and  _499
REMARK  206  A    between atoms: _503  and  _505
REMARK  207  A    between atoms: _505  and  _506
REMARK  208  A    between atoms: _505  and  _508
REMARK  209  A    between atoms: _508  and  _509
REMARK  210  A    between atoms: _512  and  _513
REMARK  211  A    between atoms: _519  and  _520
REMARK  212  A    between atoms: _525  and  _527
REMARK  213  A    between atoms: _527  and  _528
REMARK  214  A    between atoms: _527  and  _530
REMARK  215  A    between atoms: _530  and  _531
REMARK  216  A    between atoms: _531  and  _532
REMARK  217  A    between atoms: _535  and  _537
REMARK  218  A    between atoms: _537  and  _538
REMARK  219  A    between atoms: _537  and  _540
REMARK  220  A    between atoms: _540  and  _541
REMARK  221  A    between atoms: _541  and  _542
REMARK  222  A    between atoms: _542  and  _543
REMARK  223  A    between atoms: _552  and  _554
REMARK  224  A    between atoms: _554  and  _555
REMARK  225  A    between atoms: _554  and  _557
REMARK  226  A    between atoms: _557  and  _558
REMARK  227  A    between atoms: _561  and  _563
REMARK  228  A    between atoms: _563  and  _564
REMARK  229  A    between atoms: _563  and  _566
REMARK  230  A    between atoms: _566  and  _567
REMARK  231  A    between atoms: _569  and  _571
REMARK  232  A    between atoms: _571  and  _572
REMARK  233  A    between atoms: _571  and  _574
REMARK  234  A    between atoms: _574  and  _575
REMARK  235  A    between atoms: _575  and  _576
REMARK  236  A    between atoms: _576  and  _577
REMARK  237  A    between atoms: _577  and  _578
REMARK  238  A    between atoms: _582  and  _584
REMARK  239  A    between atoms: _584  and  _585
REMARK  240  A    between atoms: _584  and  _587
REMARK  241  A    between atoms: _587  and  _588
REMARK  242  A    between atoms: _591  and  _593
REMARK  243  A    between atoms: _593  and  _594
REMARK  244  A    between atoms: _596  and  _598
REMARK  245  A    between atoms: _598  and  _599
REMARK  246  A    between atoms: _598  and  _601
REMARK  247  A    between atoms: _601  and  _602
REMARK  248  A    between atoms: _604  and  _606
REMARK  249  A    between atoms: _606  and  _607
REMARK  250  A    between atoms: _609  and  _611
REMARK  251  A    between atoms: _611  and  _612
REMARK  252  A    between atoms: _611  and  _614
REMARK  253  A    between atoms: _614  and  _615
REMARK  254  A    between atoms: _620  and  _622
REMARK  255  A    between atoms: _622  and  _623
REMARK  256  A    between atoms: _622  and  _625
REMARK  257  A    between atoms: _625  and  _626
REMARK  258  A    between atoms: _629  and  _631
REMARK  259  A    between atoms: _631  and  _632
REMARK  260  A    between atoms: _631  and  _634
REMARK  261  A    between atoms: _634  and  _635
REMARK  262  A    between atoms: _641  and  _643
REMARK  263  A    between atoms: _643  and  _644
REMARK  264  A    between atoms: _643  and  _646
REMARK  265  A    between atoms: _646  and  _647
REMARK  266  A    between atoms: _647  and  _648
REMARK  267  A    between atoms: _651  and  _653
REMARK  268  A    between atoms: _653  and  _654
REMARK  269  A    between atoms: _653  and  _656
REMARK  270  A    between atoms: _656  and  _657
REMARK  271  A    between atoms: _657  and  _658
REMARK  272  A    between atoms: _663  and  _665
REMARK  273  A    between atoms: _665  and  _666
REMARK  274  A    between atoms: _665  and  _668
REMARK  275  A    between atoms: _668  and  _669
REMARK  276  A    between atoms: _669  and  _670
REMARK  277  A    between atoms: _670  and  _671
REMARK  278  A    between atoms: _680  and  _682
REMARK  279  A    between atoms: _682  and  _683
REMARK  280  A    between atoms: _682  and  _685
REMARK  281  A    between atoms: _685  and  _686
REMARK  282  A    between atoms: _686  and  _687
REMARK  283  A    between atoms: _687  and  _688
REMARK  284  A    between atoms: _697  and  _699
REMARK  285  A    between atoms: _699  and  _700
REMARK  286  A    between atoms: _699  and  _702
REMARK  287  A    between atoms: _702  and  _703
REMARK  288  A    between atoms: _708  and  _709
REMARK  289  A    between atoms: _711  and  _713
REMARK  290  A    between atoms: _713  and  _714
REMARK  291  A    between atoms: _713  and  _716
REMARK  292  A    between atoms: _716  and  _717
REMARK  293  A    between atoms: _720  and  _722
REMARK  294  A    between atoms: _722  and  _723
REMARK  295  A    between atoms: _722  and  _725
REMARK  296  A    between atoms: _725  and  _726
REMARK  297  A    between atoms: _726  and  _727
REMARK  298  A    between atoms: _727  and  _728
REMARK  299  A    between atoms: _728  and  _729
REMARK  300  A    between atoms: _733  and  _735
REMARK  301  A    between atoms: _735  and  _736
REMARK  302  A    between atoms: _735  and  _738
REMARK  303  A    between atoms: _738  and  _739
REMARK  304  A    between atoms: _744  and  _746
REMARK  305  A    between atoms: _746  and  _747
REMARK  306  A    between atoms: _746  and  _749
REMARK  307  A    between atoms: _749  and  _750
REMARK  308  A    between atoms: _760  and  _762
REMARK  309  A    between atoms: _762  and  _763
REMARK  310  A    between atoms: _762  and  _765
REMARK  311  A    between atoms: _765  and  _766
REMARK  312  A    between atoms: _766  and  _767
REMARK  313  A    between atoms: _770  and  _772
REMARK  314  A    between atoms: _772  and  _773
REMARK  315  A    between atoms: _772  and  _775
REMARK  316  A    between atoms: _775  and  _776
REMARK  317  A    between atoms: _779  and  _781
REMARK  318  A    between atoms: _781  and  _782
REMARK  319  A    between atoms: _781  and  _784
REMARK  320  A    between atoms: _784  and  _785
REMARK  321  A    between atoms: _790  and  _792
REMARK  322  A    between atoms: _792  and  _793
REMARK  323  A    between atoms: _792  and  _795
REMARK  324  A    between atoms: _795  and  _796
REMARK  325  A    between atoms: _802  and  _804
REMARK  326  A    between atoms: _804  and  _805
REMARK  327  A    between atoms: _804  and  _807
REMARK  328  A    between atoms: _807  and  _808
REMARK  329  A    between atoms: _810  and  _812
REMARK  330  A    between atoms: _812  and  _813
REMARK  331  A    between atoms: _815  and  _817
REMARK  332  A    between atoms: _817  and  _818
REMARK  333  A    between atoms: _817  and  _820
REMARK  334  A    between atoms: _820  and  _821
REMARK  335  A    between atoms: _826  and  _827
REMARK  336  A    between atoms: _829  and  _831
REMARK  337  A    between atoms: _831  and  _832
REMARK  338  A    between atoms: _831  and  _834
REMARK  339  A    between atoms: _834  and  _835
REMARK  340  A    between atoms: _840  and  _841
REMARK  341  A    between atoms: _843  and  _845
REMARK  342  A    between atoms: _845  and  _846
REMARK  343  A    between atoms: _845  and  _848
REMARK  344  A    between atoms: _848  and  _849
REMARK  345  A    between atoms: _853  and  ZN_1037
REMARK  346  A    between atoms: _854  and  _856
REMARK  347  A    between atoms: _856  and  _857
REMARK  348  A    between atoms: _856  and  _859
REMARK  349  A    between atoms: _859  and  _860
REMARK  350  A    between atoms: _860  and  _861
REMARK  351  A    between atoms: _864  and  _866
REMARK  352  A    between atoms: _866  and  _867
REMARK  353  A    between atoms: _866  and  _869
REMARK  354  A    between atoms: _869  and  _870
REMARK  355  A    between atoms: _870  and  _871
REMARK  356  A    between atoms: _871  and  _872
REMARK  357  A    between atoms: _881  and  _883
REMARK  358  A    between atoms: _883  and  _884
REMARK  359  A    between atoms: _883  and  _886
REMARK  360  A    between atoms: _886  and  _887
REMARK  361  A    between atoms: _887  and  _888
REMARK  362  A    between atoms: _888  and  _889
REMARK  363  A    between atoms: _889  and  _890
REMARK  364  A    between atoms: _894  and  _896
REMARK  365  A    between atoms: _896  and  _897
REMARK  366  A    between atoms: _896  and  _899
REMARK  367  A    between atoms: _899  and  _900
REMARK  368  A    between atoms: _905  and  _906
REMARK  369  A    between atoms: _908  and  _910
REMARK  370  A    between atoms: _910  and  _911
REMARK  371  A    between atoms: _910  and  _913
REMARK  372  A    between atoms: _913  and  _914
REMARK  373  A    between atoms: _914  and  _915
REMARK  374  A    between atoms: _915  and  _916
REMARK  375  A    between atoms: _916  and  _917
REMARK  376  A    between atoms: _921  and  _923
REMARK  377  A    between atoms: _923  and  _924
REMARK  378  A    between atoms: _923  and  _926
REMARK  379  A    between atoms: _926  and  _927
REMARK  380  A    between atoms: _932  and  _933
REMARK  381  A    between atoms: _935  and  _937
REMARK  382  A    between atoms: _937  and  _938
REMARK  383  A    between atoms: _937  and  _940
REMARK  384  A    between atoms: _940  and  _941
REMARK  385  A    between atoms: _946  and  _947
REMARK  386  A    between atoms: _949  and  _951
REMARK  387  A    between atoms: _951  and  _952
REMARK  388  A    between atoms: _956  and  _957
REMARK  389  A    between atoms: _962  and  _964
REMARK  390  A    between atoms: _964  and  _965
REMARK  391  A    between atoms: _964  and  _967
REMARK  392  A    between atoms: _967  and  _968
REMARK  393  A    between atoms: _970  and  _972
REMARK  394  A    between atoms: _972  and  _973
REMARK  395  A    between atoms: _972  and  _975
REMARK  396  A    between atoms: _975  and  _976
REMARK  397  A    between atoms: _981  and  _983
REMARK  398  A    between atoms: _983  and  _984
REMARK  399  A    between atoms: _983  and  _986
REMARK  400  A    between atoms: _986  and  _987
REMARK  401  A    between atoms: _987  and  _988
REMARK  402  A    between atoms: _988  and  _989
REMARK  403  A    between atoms: _989  and  _990
REMARK  404  A    between atoms: _994  and  _996
REMARK  405  A    between atoms: _996  and  _997
REMARK  406  A    between atoms: _996  and  _999
REMARK  407  A    between atoms: _999  and  _1000
REMARK  408  A    between atoms: _1005  and  _1006
REMARK  409  A    between atoms: _1008  and  _1010
REMARK  410  A    between atoms: _1010  and  _1011
REMARK  411  A    between atoms: _1014  and  _1016
REMARK  412  A    between atoms: _1016  and  _1017
REMARK  413  A    between atoms: _1019  and  _1021
REMARK  414  A    between atoms: _1021  and  _1022
REMARK  415  A    between atoms: _1021  and  _1024
REMARK  416  A    between atoms: _1024  and  _1025
REMARK  417  A    between atoms: _1025  and  _1026
REMARK  418  A    between atoms: _1029  and  _1031
REMARK  419  A    between atoms: _1031  and  _1032
REMARK  420  A    between atoms: _1031  and  _1034
REMARK  421  A    between atoms: _1034  and  _1035
REMARK                            x       y       z     vdW  Elec       q    Type
REMARK                         _______ _______ _______ _____ _____    ______ ____
ROOT
ATOM      1  O   HOH     1      21.975  52.335  45.044  0.00  0.00    +0.000 OA
ENDROOT
TORSDOF 0
REMARK  Name = ../refined-set-2016/2xef/2xef_pocket.pdb
REMARK  421 active torsions:
REMARK  status: ('A' for Active; 'I' for Inactive)
REMARK    1  A    between atoms: _1  and  _3
REMARK    2  A    between atoms: _3  and  _4
REMARK    3  A    between atoms: _7  and  _9
REMARK    4  A    between atoms: _9  and  _10
REMARK    5  A    between atoms: _9  and  _12
REMARK    6  A    between atoms: _12  and  _13
REMARK    7  A    between atoms: _19  and  _21
REMARK    8  A    between atoms: _21  and  _22
REMARK    9  A    between atoms: _21  and  _24
REMARK   10  A    between atoms: _24  and  _25
REMARK   11  A    between atoms: _30  and  _31
REMARK   12  A    between atoms: _33  and  _35
REMARK   13  A    between atoms: _35  and  _36
REMARK   14  A    between atoms: _38  and  _40
REMARK   15  A    between atoms: _40  and  _41
REMARK   16  A    between atoms: _40  and  _43
REMARK   17  A    between atoms: _43  and  _44
REMARK   18  A    between atoms: _44  and  _45
REMARK   19  A    between atoms: _45  and  _46
REMARK   20  A    between atoms: _46  and  _47
REMARK   21  A    between atoms: _51  and  _53
REMARK   22  A    between atoms: _53  and  _54
REMARK   23  A    between atoms: _53  and  _56
REMARK   24  A    between atoms: _59  and  _61
REMARK   25  A    between atoms: _61  and  _62
REMARK   26  A    between atoms: _61  and  _64
REMARK   27  A    between atoms: _64  and  _65
REMARK   28  A    between atoms: _71  and  _73
REMARK   29  A    between atoms: _73  and  _74
REMARK   30  A    between atoms: _73  and  _76
REMARK   31  A    between atoms: _76  and  _77
REMARK   32  A    between atoms: _77  and  _78
REMARK   33  A    between atoms: _78  and  _79
REMARK   34  A    between atoms: _88  and  _90
REMARK   35  A    between atoms: _90  and  _91
REMARK   36  A    between atoms: _93  and  _95
REMARK   37  A    between atoms: _95  and  _96
REMARK   38  A    between atoms: _95  and  _98
REMARK   39  A    between atoms: _98  and  _99
REMARK   40  A    between atoms: _99  and  _100
REMARK   41  A    between atoms: _100  and  _101
REMARK   42  A    between atoms: _101  and  _102
REMARK   43  A    between atoms: _106  and  _108
REMARK   44  A    between atoms: _108  and  _109
REMARK   45  A    between atoms: _108  and  _111
REMARK   46  A    between atoms: _111  and  _112
REMARK   47  A    between atoms: _117  and  _118
REMARK   48  A    between atoms: _120  and  _122
REMARK   49  A    between atoms: _122  and  _123
REMARK   50  A    between atoms: _122  and  _125
REMARK   51  A    between atoms: _125  and  _126
REMARK   52  A    between atoms: _126  and  _127
REMARK   53  A    between atoms: _132  and  _134
REMARK   54  A    between atoms: _134  and  _135
REMARK   55  A    between atoms: _134  and  _137
REMARK   56  A    between atoms: _137  and  _138
REMARK   57  A    between atoms: _138  and  _139
REMARK   58  A    between atoms: _139  and  _140
REMARK   59  A    between atoms: _149  and  _151
REMARK   60  A    between atoms: _151  and  _152
REMARK   61  A    between atoms: _154  and  _156
REMARK   62  A    between atoms: _156  and  _157
REMARK   63  A    between atoms: _156  and  _159
REMARK   64  A    between atoms: _159  and  _160
REMARK   65  A    between atoms: _165  and  _167
REMARK   66  A    between atoms: _167  and  _168
REMARK   67  A    between atoms: _167  and  _170
REMARK   68  A    between atoms: _170  and  _171
REMARK   69  A    between atoms: _174  and  _176
REMARK   70  A    between atoms: _176  and  _177
REMARK   71  A    between atoms: _176  and  _179
REMARK   72  A    between atoms: _179  and  _180
REMARK   73  A    between atoms: _183  and  _185
REMARK   74  A    between atoms: _185  and  _186
REMARK   75  A    between atoms: _185  and  _188
REMARK   76  A    between atoms: _188  and  _189
REMARK   77  A    between atoms: _194  and  _196
REMARK   78  A    between atoms: _196  and  _197
REMARK   79  A    between atoms: _196  and  _199
REMARK   80  A    between atoms: _199  and  _200
REMARK   81  A    between atoms: _203  and  _205
REMARK   82  A    between atoms: _205  and  _206
REMARK   83  A    between atoms: _205  and  _208
REMARK   84  A    between atoms: _208  and  _209
REMARK   85  A    between atoms: _214  and  _216
REMARK   86  A    between atoms: _216  and  _217
REMARK   87  A    between atoms: _219  and  _221
REMARK   88  A    between atoms: _221  and  _222
REMARK   89  A    between atoms: _224  and  _226
REMARK   90  A    between atoms: _226  and  _227
REMARK   91  A    between atoms: _226  and  _229
REMARK   92  A    between atoms: _229  and  _230
REMARK   93  A    between atoms: _234  and  ZN_1038
REMARK   94  A    between atoms: _235  and  _237
REMARK   95  A    between atoms: _237  and  _238
REMARK   96  A    between atoms: _237  and  _240
REMARK   97  A    between atoms: _240  and  _241
REMARK   98  A    between atoms: _244  and  _246
REMARK   99  A    between atoms: _246  and  _247
REMARK  100  A    between atoms: _246  and  _249
REMARK  101  A    between atoms: _249  and  _250
REMARK  102  A    between atoms: _260  and  _262
REMARK  103  A    between atoms: _262  and  _263
REMARK  104  A    between atoms: _262  and  _265
REMARK  105  A    between atoms: _265  and  _266
REMARK  106  A    between atoms: _269  and  _271
REMARK  107  A    between atoms: _271  and  _272
REMARK  108  A    between atoms: _271  and  _274
REMARK  109  A    between atoms: _274  and  _275
REMARK  110  A    between atoms: _279  and  _280
REMARK  111  A    between atoms: _285  and  _287
REMARK  112  A    between atoms: _287  and  _288
REMARK  113  A    between atoms: _291  and  _293
REMARK  114  A    between atoms: _293  and  _294
REMARK  115  A    between atoms: _293  and  _296
REMARK  116  A    between atoms: _296  and  _297
REMARK  117  A    between atoms: _297  and  _298
REMARK  118  A    between atoms: _301  and  _303
REMARK  119  A    between atoms: _303  and  _304
REMARK  120  A    between atoms: _303  and  _306
REMARK  121  A    between atoms: _306  and  _307
REMARK  122  A    between atoms: _307  and  _308
REMARK  123  A    between atoms: _308  and  _310
REMARK  124  A    between atoms: _310  and  ZN_1037
REMARK  125  A    between atoms: _311  and  _313
REMARK  126  A    between atoms: _313  and  _314
REMARK  127  A    between atoms: _313  and  _316
REMARK  128  A    between atoms: _316  and  _317
REMARK  129  A    between atoms: _323  and  _325
REMARK  130  A    between atoms: _325  and  _326
REMARK  131  A    between atoms: _328  and  _330
REMARK  132  A    between atoms: _330  and  _331
REMARK  133  A    between atoms: _330  and  _333
REMARK  134  A    between atoms: _333  and  _334
REMARK  135  A    between atoms: _337  and  _339
REMARK  136  A    between atoms: _339  and  _340
REMARK  137  A    between atoms: _339  and  _342
REMARK  138  A    between atoms: _342  and  _343
REMARK  139  A    between atoms: _346  and  _348
REMARK  140  A    between atoms: _348  and  _349
REMARK  141  A    between atoms: _348  and  _351
REMARK  142  A    between atoms: _351  and  _352
REMARK  143  A    between atoms: _357  and  _359
REMARK  144  A    between atoms: _359  and  _360
REMARK  145  A    between atoms: _359  and  _362
REMARK  146  A    between atoms: _362  and  _363
REMARK  147  A    between atoms: _363  and  _365
REMARK  148  A    between atoms: _365  and  ZN_1038
REMARK  149  A    between atoms: _366  and  _368
REMARK  150  A    between atoms: _368  and  _369
REMARK  151  A    between atoms: _368  and  _371
REMARK  152  A    between atoms: _371  and  _372
REMARK  153  A    between atoms: _374  and  _376
REMARK  154  A    between atoms: _376  and  _377
REMARK  155  A    between atoms: _376  and  _379
REMARK  156  A    between atoms: _379  and  _380
REMARK  157  A    between atoms: _382  and  _384
REMARK  158  A    between atoms: _384  and  _385
REMARK  159  A    between atoms: _384  and  _387
REMARK  160  A    between atoms: _387  and  _388
REMARK  161  A    between atoms: _391  and  _393
REMARK  162  A    between atoms: _393  and  _394
REMARK  163  A    between atoms: _393  and  _396
REMARK  164  A    between atoms: _396  and  _397
REMARK  165  A    between atoms: _397  and  _398
REMARK  166  A    between atoms: _401  and  _403
REMARK  167  A    between atoms: _403  and  _404
REMARK  168  A    between atoms: _403  and  _406
REMARK  169  A    between atoms: _406  and  _407
REMARK  170  A    between atoms: _412  and  _413
REMARK  171  A    between atoms: _415  and  _417
REMARK  172  A    between atoms: _417  and  _418
REMARK  173  A    between atoms: _417  and  _420
REMARK  174  A    between atoms: _420  and  _421
REMARK  175  A    between atoms: _424  and  _426
REMARK  176  A    between atoms: _426  and  _427
REMARK  177  A    between atoms: _426  and  _429
REMARK  178  A    between atoms: _429  and  _430
REMARK  179  A    between atoms: _433  and  _435
REMARK  180  A    between atoms: _435  and  _436
REMARK  181  A    between atoms: _435  and  _438
REMARK  182  A    between atoms: _438  and  _439
REMARK  183  A    between atoms: _439  and  _440
REMARK  184  A    between atoms: _440  and  _441
REMARK  185  A    between atoms: _450  and  _452
REMARK  186  A    between atoms: _452  and  _453
REMARK  187  A    between atoms: _452  and  _455
REMARK  188  A    between atoms: _458  and  _460
REMARK  189  A    between atoms: _460  and  _461
REMARK  190  A    between atoms: _460  and  _463
REMARK  191  A    between atoms: _463  and  _464
REMARK  192  A    between atoms: _467  and  _469
REMARK  193  A    between atoms: _469  and  _470
REMARK  194  A    between atoms: _469  and  _472
REMARK  195  A    between atoms: _474  and  _476
REMARK  196  A    between atoms: _476  and  _477
REMARK  197  A    between atoms: _476  and  _479
REMARK  198  A    between atoms: _479  and  _480
REMARK  199  A    between atoms: _490  and  _492
REMARK  200  A    between atoms: _492  and  _493
REMARK  201  A    between atoms: _492  and  _495
REMARK  202  A    between atoms: _495  and  _496
REMARK  203  A    between atoms: _496  and  _497
REMARK  204  A    between atoms: _497  and  _498
REMARK  205  A    between atoms: _498  and  _499
REMARK  206  A    between atoms: _503  and  _505
REMARK  207  A    between atoms: _505  and  _506
REMARK  208  A    between atoms: _505  and  _508
REMARK  209  A    between atoms: _508  and  _509
REMARK  210  A    between atoms: _512  and  _513
REMARK  211  A    between atoms: _519  and  _520
REMARK  212  A    between atoms: _525  and  _527
REMARK  213  A    between atoms: _527  and  _528
REMARK  214  A    between atoms: _527  and  _530
REMARK  215  A    between atoms: _530  and  _531
REMARK  216  A    between atoms: _531  and  _532
REMARK  217  A    between atoms: _535  and  _537
REMARK  218  A    between atoms: _537  and  _538
REMARK  219  A    between atoms: _537  and  _540
REMARK  220  A    between atoms: _540  and  _541
REMARK  221  A    between atoms: _541  and  _542
REMARK  222  A    between atoms: _542  and  _543
REMARK  223  A    between atoms: _552  and  _554
REMARK  224  A    between atoms: _554  and  _555
REMARK  225  A    between atoms: _554  and  _557
REMARK  226  A    between atoms: _557  and  _558
REMARK  227  A    between atoms: _561  and  _563
REMARK  228  A    between atoms: _563  and  _564
REMARK  229  A    between atoms: _563  and  _566
REMARK  230  A    between atoms: _566  and  _567
REMARK  231  A    between atoms: _569  and  _571
REMARK  232  A    between atoms: _571  and  _572
REMARK  233  A    between atoms: _571  and  _574
REMARK  234  A    between atoms: _574  and  _575
REMARK  235  A    between atoms: _575  and  _576
REMARK  236  A    between atoms: _576  and  _577
REMARK  237  A    between atoms: _577  and  _578
REMARK  238  A    between atoms: _582  and  _584
REMARK  239  A    between atoms: _584  and  _585
REMARK  240  A    between atoms: _584  and  _587
REMARK  241  A    between atoms: _587  and  _588
REMARK  242  A    between atoms: _591  and  _593
REMARK  243  A    between atoms: _593  and  _594
REMARK  244  A    between atoms: _596  and  _598
REMARK  245  A    between atoms: _598  and  _599
REMARK  246  A    between atoms: _598  and  _601
REMARK  247  A    between atoms: _601  and  _602
REMARK  248  A    between atoms: _604  and  _606
REMARK  249  A    between atoms: _606  and  _607
REMARK  250  A    between atoms: _609  and  _611
REMARK  251  A    between atoms: _611  and  _612
REMARK  252  A    between atoms: _611  and  _614
REMARK  253  A    between atoms: _614  and  _615
REMARK  254  A    between atoms: _620  and  _622
REMARK  255  A    between atoms: _622  and  _623
REMARK  256  A    between atoms: _622  and  _625
REMARK  257  A    between atoms: _625  and  _626
REMARK  258  A    between atoms: _629  and  _631
REMARK  259  A    between atoms: _631  and  _632
REMARK  260  A    between atoms: _631  and  _634
REMARK  261  A    between atoms: _634  and  _635
REMARK  262  A    between atoms: _641  and  _643
REMARK  263  A    between atoms: _643  and  _644
REMARK  264  A    between atoms: _643  and  _646
REMARK  265  A    between atoms: _646  and  _647
REMARK  266  A    between atoms: _647  and  _648
REMARK  267  A    between atoms: _651  and  _653
REMARK  268  A    between atoms: _653  and  _654
REMARK  269  A    between atoms: _653  and  _656
REMARK  270  A    between atoms: _656  and  _657
REMARK  271  A    between atoms: _657  and  _658
REMARK  272  A    between atoms: _663  and  _665
REMARK  273  A    between atoms: _665  and  _666
REMARK  274  A    between atoms: _665  and  _668
REMARK  275  A    between atoms: _668  and  _669
REMARK  276  A    between atoms: _669  and  _670
REMARK  277  A    between atoms: _670  and  _671
REMARK  278  A    between atoms: _680  and  _682
REMARK  279  A    between atoms: _682  and  _683
REMARK  280  A    between atoms: _682  and  _685
REMARK  281  A    between atoms: _685  and  _686
REMARK  282  A    between atoms: _686  and  _687
REMARK  283  A    between atoms: _687  and  _688
REMARK  284  A    between atoms: _697  and  _699
REMARK  285  A    between atoms: _699  and  _700
REMARK  286  A    between atoms: _699  and  _702
REMARK  287  A    between atoms: _702  and  _703
REMARK  288  A    between atoms: _708  and  _709
REMARK  289  A    between atoms: _711  and  _713
REMARK  290  A    between atoms: _713  and  _714
REMARK  291  A    between atoms: _713  and  _716
REMARK  292  A    between atoms: _716  and  _717
REMARK  293  A    between atoms: _720  and  _722
REMARK  294  A    between atoms: _722  and  _723
REMARK  295  A    between atoms: _722  and  _725
REMARK  296  A    between atoms: _725  and  _726
REMARK  297  A    between atoms: _726  and  _727
REMARK  298  A    between atoms: _727  and  _728
REMARK  299  A    between atoms: _728  and  _729
REMARK  300  A    between atoms: _733  and  _735
REMARK  301  A    between atoms: _735  and  _736
REMARK  302  A    between atoms: _735  and  _738
REMARK  303  A    between atoms: _738  and  _739
REMARK  304  A    between atoms: _744  and  _746
REMARK  305  A    between atoms: _746  and  _747
REMARK  306  A    between atoms: _746  and  _749
REMARK  307  A    between atoms: _749  and  _750
REMARK  308  A    between atoms: _760  and  _762
REMARK  309  A    between atoms: _762  and  _763
REMARK  310  A    between atoms: _762  and  _765
REMARK  311  A    between atoms: _765  and  _766
REMARK  312  A    between atoms: _766  and  _767
REMARK  313  A    between atoms: _770  and  _772
REMARK  314  A    between atoms: _772  and  _773
REMARK  315  A    between atoms: _772  and  _775
REMARK  316  A    between atoms: _775  and  _776
REMARK  317  A    between atoms: _779  and  _781
REMARK  318  A    between atoms: _781  and  _782
REMARK  319  A    between atoms: _781  and  _784
REMARK  320  A    between atoms: _784  and  _785
REMARK  321  A    between atoms: _790  and  _792
REMARK  322  A    between atoms: _792  and  _793
REMARK  323  A    between atoms: _792  and  _795
REMARK  324  A    between atoms: _795  and  _796
REMARK  325  A    between atoms: _802  and  _804
REMARK  326  A    between atoms: _804  and  _805
REMARK  327  A    between atoms: _804  and  _807
REMARK  328  A    between atoms: _807  and  _808
REMARK  329  A    between atoms: _810  and  _812
REMARK  330  A    between atoms: _812  and  _813
REMARK  331  A    between atoms: _815  and  _817
REMARK  332  A    between atoms: _817  and  _818
REMARK  333  A    between atoms: _817  and  _820
REMARK  334  A    between atoms: _820  and  _821
REMARK  335  A    between atoms: _826  and  _827
REMARK  336  A    between atoms: _829  and  _831
REMARK  337  A    between atoms: _831  and  _832
REMARK  338  A    between atoms: _831  and  _834
REMARK  339  A    between atoms: _834  and  _835
REMARK  340  A    between atoms: _840  and  _841
REMARK  341  A    between atoms: _843  and  _845
REMARK  342  A    between atoms: _845  and  _846
REMARK  343  A    between atoms: _845  and  _848
REMARK  344  A    between atoms: _848  and  _849
REMARK  345  A    between atoms: _853  and  ZN_1037
REMARK  346  A    between atoms: _854  and  _856
REMARK  347  A    between atoms: _856  and  _857
REMARK  348  A    between atoms: _856  and  _859
REMARK  349  A    between atoms: _859  and  _860
REMARK  350  A    between atoms: _860  and  _861
REMARK  351  A    between atoms: _864  and  _866
REMARK  352  A    between atoms: _866  and  _867
REMARK  353  A    between atoms: _866  and  _869
REMARK  354  A    between atoms: _869  and  _870
REMARK  355  A    between atoms: _870  and  _871
REMARK  356  A    between atoms: _871  and  _872
REMARK  357  A    between atoms: _881  and  _883
REMARK  358  A    between atoms: _883  and  _884
REMARK  359  A    between atoms: _883  and  _886
REMARK  360  A    between atoms: _886  and  _887
REMARK  361  A    between atoms: _887  and  _888
REMARK  362  A    between atoms: _888  and  _889
REMARK  363  A    between atoms: _889  and  _890
REMARK  364  A    between atoms: _894  and  _896
REMARK  365  A    between atoms: _896  and  _897
REMARK  366  A    between atoms: _896  and  _899
REMARK  367  A    between atoms: _899  and  _900
REMARK  368  A    between atoms: _905  and  _906
REMARK  369  A    between atoms: _908  and  _910
REMARK  370  A    between atoms: _910  and  _911
REMARK  371  A    between atoms: _910  and  _913
REMARK  372  A    between atoms: _913  and  _914
REMARK  373  A    between atoms: _914  and  _915
REMARK  374  A    between atoms: _915  and  _916
REMARK  375  A    between atoms: _916  and  _917
REMARK  376  A    between atoms: _921  and  _923
REMARK  377  A    between atoms: _923  and  _924
REMARK  378  A    between atoms: _923  and  _926
REMARK  379  A    between atoms: _926  and  _927
REMARK  380  A    between atoms: _932  and  _933
REMARK  381  A    between atoms: _935  and  _937
REMARK  382  A    between atoms: _937  and  _938
REMARK  383  A    between atoms: _937  and  _940
REMARK  384  A    between atoms: _940  and  _941
REMARK  385  A    between atoms: _946  and  _947
REMARK  386  A    between atoms: _949  and  _951
REMARK  387  A    between atoms: _951  and  _952
REMARK  388  A    between atoms: _956  and  _957
REMARK  389  A    between atoms: _962  and  _964
REMARK  390  A    between atoms: _964  and  _965
REMARK  391  A    between atoms: _964  and  _967
REMARK  392  A    between atoms: _967  and  _968
REMARK  393  A    between atoms: _970  and  _972
REMARK  394  A    between atoms: _972  and  _973
REMARK  395  A    between atoms: _972  and  _975
REMARK  396  A    between atoms: _975  and  _976
REMARK  397  A    between atoms: _981  and  _983
REMARK  398  A    between atoms: _983  and  _984
REMARK  399  A    between atoms: _983  and  _986
REMARK  400  A    between atoms: _986  and  _987
REMARK  401  A    between atoms: _987  and  _988
REMARK  402  A    between atoms: _988  and  _989
REMARK  403  A    between atoms: _989  and  _990
REMARK  404  A    between atoms: _994  and  _996
REMARK  405  A    between atoms: _996  and  _997
REMARK  406  A    between atoms: _996  and  _999
REMARK  407  A    between atoms: _999  and  _1000
REMARK  408  A    between atoms: _1005  and  _1006
REMARK  409  A    between atoms: _1008  and  _1010
REMARK  410  A    between atoms: _1010  and  _1011
REMARK  411  A    between atoms: _1014  and  _1016
REMARK  412  A    between atoms: _1016  and  _1017
REMARK  413  A    between atoms: _1019  and  _1021
REMARK  414  A    between atoms: _1021  and  _1022
REMARK  415  A    between atoms: _1021  and  _1024
REMARK  416  A    between atoms: _1024  and  _1025
REMARK  417  A    between atoms: _1025  and  _1026
REMARK  418  A    between atoms: _1029  and  _1031
REMARK  419  A    between atoms: _1031  and  _1032
REMARK  420  A    between atoms: _1031  and  _1034
REMARK  421  A    between atoms: _1034  and  _1035
REMARK                            x       y       z     vdW  Elec       q    Type
REMARK                         _______ _______ _______ _____ _____    ______ ____
ROOT
ATOM      1  O   HOH     1      20.623  45.691  36.328  0.00  0.00    +0.000 OA
ENDROOT
TORSDOF 0
REMARK  Name = ../refined-set-2016/2xef/2xef_pocket.pdb
REMARK  421 active torsions:
REMARK  status: ('A' for Active; 'I' for Inactive)
REMARK    1  A    between atoms: _1  and  _3
REMARK    2  A    between atoms: _3  and  _4
REMARK    3  A    between atoms: _7  and  _9
REMARK    4  A    between atoms: _9  and  _10
REMARK    5  A    between atoms: _9  and  _12
REMARK    6  A    between atoms: _12  and  _13
REMARK    7  A    between atoms: _19  and  _21
REMARK    8  A    between atoms: _21  and  _22
REMARK    9  A    between atoms: _21  and  _24
REMARK   10  A    between atoms: _24  and  _25
REMARK   11  A    between atoms: _30  and  _31
REMARK   12  A    between atoms: _33  and  _35
REMARK   13  A    between atoms: _35  and  _36
REMARK   14  A    between atoms: _38  and  _40
REMARK   15  A    between atoms: _40  and  _41
REMARK   16  A    between atoms: _40  and  _43
REMARK   17  A    between atoms: _43  and  _44
REMARK   18  A    between atoms: _44  and  _45
REMARK   19  A    between atoms: _45  and  _46
REMARK   20  A    between atoms: _46  and  _47
REMARK   21  A    between atoms: _51  and  _53
REMARK   22  A    between atoms: _53  and  _54
REMARK   23  A    between atoms: _53  and  _56
REMARK   24  A    between atoms: _59  and  _61
REMARK   25  A    between atoms: _61  and  _62
REMARK   26  A    between atoms: _61  and  _64
REMARK   27  A    between atoms: _64  and  _65
REMARK   28  A    between atoms: _71  and  _73
REMARK   29  A    between atoms: _73  and  _74
REMARK   30  A    between atoms: _73  and  _76
REMARK   31  A    between atoms: _76  and  _77
REMARK   32  A    between atoms: _77  and  _78
REMARK   33  A    between atoms: _78  and  _79
REMARK   34  A    between atoms: _88  and  _90
REMARK   35  A    between atoms: _90  and  _91
REMARK   36  A    between atoms: _93  and  _95
REMARK   37  A    between atoms: _95  and  _96
REMARK   38  A    between atoms: _95  and  _98
REMARK   39  A    between atoms: _98  and  _99
REMARK   40  A    between atoms: _99  and  _100
REMARK   41  A    between atoms: _100  and  _101
REMARK   42  A    between atoms: _101  and  _102
REMARK   43  A    between atoms: _106  and  _108
REMARK   44  A    between atoms: _108  and  _109
REMARK   45  A    between atoms: _108  and  _111
REMARK   46  A    between atoms: _111  and  _112
REMARK   47  A    between atoms: _117  and  _118
REMARK   48  A    between atoms: _120  and  _122
REMARK   49  A    between atoms: _122  and  _123
REMARK   50  A    between atoms: _122  and  _125
REMARK   51  A    between atoms: _125  and  _126
REMARK   52  A    between atoms: _126  and  _127
REMARK   53  A    between atoms: _132  and  _134
REMARK   54  A    between atoms: _134  and  _135
REMARK   55  A    between atoms: _134  and  _137
REMARK   56  A    between atoms: _137  and  _138
REMARK   57  A    between atoms: _138  and  _139
REMARK   58  A    between atoms: _139  and  _140
REMARK   59  A    between atoms: _149  and  _151
REMARK   60  A    between atoms: _151  and  _152
REMARK   61  A    between atoms: _154  and  _156
REMARK   62  A    between atoms: _156  and  _157
REMARK   63  A    between atoms: _156  and  _159
REMARK   64  A    between atoms: _159  and  _160
REMARK   65  A    between atoms: _165  and  _167
REMARK   66  A    between atoms: _167  and  _168
REMARK   67  A    between atoms: _167  and  _170
REMARK   68  A    between atoms: _170  and  _171
REMARK   69  A    between atoms: _174  and  _176
REMARK   70  A    between atoms: _176  and  _177
REMARK   71  A    between atoms: _176  and  _179
REMARK   72  A    between atoms: _179  and  _180
REMARK   73  A    between atoms: _183  and  _185
REMARK   74  A    between atoms: _185  and  _186
REMARK   75  A    between atoms: _185  and  _188
REMARK   76  A    between atoms: _188  and  _189
REMARK   77  A    between atoms: _194  and  _196
REMARK   78  A    between atoms: _196  and  _197
REMARK   79  A    between atoms: _196  and  _199
REMARK   80  A    between atoms: _199  and  _200
REMARK   81  A    between atoms: _203  and  _205
REMARK   82  A    between atoms: _205  and  _206
REMARK   83  A    between atoms: _205  and  _208
REMARK   84  A    between atoms: _208  and  _209
REMARK   85  A    between atoms: _214  and  _216
REMARK   86  A    between atoms: _216  and  _217
REMARK   87  A    between atoms: _219  and  _221
REMARK   88  A    between atoms: _221  and  _222
REMARK   89  A    between atoms: _224  and  _226
REMARK   90  A    between atoms: _226  and  _227
REMARK   91  A    between atoms: _226  and  _229
REMARK   92  A    between atoms: _229  and  _230
REMARK   93  A    between atoms: _234  and  ZN_1038
REMARK   94  A    between atoms: _235  and  _237
REMARK   95  A    between atoms: _237  and  _238
REMARK   96  A    between atoms: _237  and  _240
REMARK   97  A    between atoms: _240  and  _241
REMARK   98  A    between atoms: _244  and  _246
REMARK   99  A    between atoms: _246  and  _247
REMARK  100  A    between atoms: _246  and  _249
REMARK  101  A    between atoms: _249  and  _250
REMARK  102  A    between atoms: _260  and  _262
REMARK  103  A    between atoms: _262  and  _263
REMARK  104  A    between atoms: _262  and  _265
REMARK  105  A    between atoms: _265  and  _266
REMARK  106  A    between atoms: _269  and  _271
REMARK  107  A    between atoms: _271  and  _272
REMARK  108  A    between atoms: _271  and  _274
REMARK  109  A    between atoms: _274  and  _275
REMARK  110  A    between atoms: _279  and  _280
REMARK  111  A    between atoms: _285  and  _287
REMARK  112  A    between atoms: _287  and  _288
REMARK  113  A    between atoms: _291  and  _293
REMARK  114  A    between atoms: _293  and  _294
REMARK  115  A    between atoms: _293  and  _296
REMARK  116  A    between atoms: _296  and  _297
REMARK  117  A    between atoms: _297  and  _298
REMARK  118  A    between atoms: _301  and  _303
REMARK  119  A    between atoms: _303  and  _304
REMARK  120  A    between atoms: _303  and  _306
REMARK  121  A    between atoms: _306  and  _307
REMARK  122  A    between atoms: _307  and  _308
REMARK  123  A    between atoms: _308  and  _310
REMARK  124  A    between atoms: _310  and  ZN_1037
REMARK  125  A    between atoms: _311  and  _313
REMARK  126  A    between atoms: _313  and  _314
REMARK  127  A    between atoms: _313  and  _316
REMARK  128  A    between atoms: _316  and  _317
REMARK  129  A    between atoms: _323  and  _325
REMARK  130  A    between atoms: _325  and  _326
REMARK  131  A    between atoms: _328  and  _330
REMARK  132  A    between atoms: _330  and  _331
REMARK  133  A    between atoms: _330  and  _333
REMARK  134  A    between atoms: _333  and  _334
REMARK  135  A    between atoms: _337  and  _339
REMARK  136  A    between atoms: _339  and  _340
REMARK  137  A    between atoms: _339  and  _342
REMARK  138  A    between atoms: _342  and  _343
REMARK  139  A    between atoms: _346  and  _348
REMARK  140  A    between atoms: _348  and  _349
REMARK  141  A    between atoms: _348  and  _351
REMARK  142  A    between atoms: _351  and  _352
REMARK  143  A    between atoms: _357  and  _359
REMARK  144  A    between atoms: _359  and  _360
REMARK  145  A    between atoms: _359  and  _362
REMARK  146  A    between atoms: _362  and  _363
REMARK  147  A    between atoms: _363  and  _365
REMARK  148  A    between atoms: _365  and  ZN_1038
REMARK  149  A    between atoms: _366  and  _368
REMARK  150  A    between atoms: _368  and  _369
REMARK  151  A    between atoms: _368  and  _371
REMARK  152  A    between atoms: _371  and  _372
REMARK  153  A    between atoms: _374  and  _376
REMARK  154  A    between atoms: _376  and  _377
REMARK  155  A    between atoms: _376  and  _379
REMARK  156  A    between atoms: _379  and  _380
REMARK  157  A    between atoms: _382  and  _384
REMARK  158  A    between atoms: _384  and  _385
REMARK  159  A    between atoms: _384  and  _387
REMARK  160  A    between atoms: _387  and  _388
REMARK  161  A    between atoms: _391  and  _393
REMARK  162  A    between atoms: _393  and  _394
REMARK  163  A    between atoms: _393  and  _396
REMARK  164  A    between atoms: _396  and  _397
REMARK  165  A    between atoms: _397  and  _398
REMARK  166  A    between atoms: _401  and  _403
REMARK  167  A    between atoms: _403  and  _404
REMARK  168  A    between atoms: _403  and  _406
REMARK  169  A    between atoms: _406  and  _407
REMARK  170  A    between atoms: _412  and  _413
REMARK  171  A    between atoms: _415  and  _417
REMARK  172  A    between atoms: _417  and  _418
REMARK  173  A    between atoms: _417  and  _420
REMARK  174  A    between atoms: _420  and  _421
REMARK  175  A    between atoms: _424  and  _426
REMARK  176  A    between atoms: _426  and  _427
REMARK  177  A    between atoms: _426  and  _429
REMARK  178  A    between atoms: _429  and  _430
REMARK  179  A    between atoms: _433  and  _435
REMARK  180  A    between atoms: _435  and  _436
REMARK  181  A    between atoms: _435  and  _438
REMARK  182  A    between atoms: _438  and  _439
REMARK  183  A    between atoms: _439  and  _440
REMARK  184  A    between atoms: _440  and  _441
REMARK  185  A    between atoms: _450  and  _452
REMARK  186  A    between atoms: _452  and  _453
REMARK  187  A    between atoms: _452  and  _455
REMARK  188  A    between atoms: _458  and  _460
REMARK  189  A    between atoms: _460  and  _461
REMARK  190  A    between atoms: _460  and  _463
REMARK  191  A    between atoms: _463  and  _464
REMARK  192  A    between atoms: _467  and  _469
REMARK  193  A    between atoms: _469  and  _470
REMARK  194  A    between atoms: _469  and  _472
REMARK  195  A    between atoms: _474  and  _476
REMARK  196  A    between atoms: _476  and  _477
REMARK  197  A    between atoms: _476  and  _479
REMARK  198  A    between atoms: _479  and  _480
REMARK  199  A    between atoms: _490  and  _492
REMARK  200  A    between atoms: _492  and  _493
REMARK  201  A    between atoms: _492  and  _495
REMARK  202  A    between atoms: _495  and  _496
REMARK  203  A    between atoms: _496  and  _497
REMARK  204  A    between atoms: _497  and  _498
REMARK  205  A    between atoms: _498  and  _499
REMARK  206  A    between atoms: _503  and  _505
REMARK  207  A    between atoms: _505  and  _506
REMARK  208  A    between atoms: _505  and  _508
REMARK  209  A    between atoms: _508  and  _509
REMARK  210  A    between atoms: _512  and  _513
REMARK  211  A    between atoms: _519  and  _520
REMARK  212  A    between atoms: _525  and  _527
REMARK  213  A    between atoms: _527  and  _528
REMARK  214  A    between atoms: _527  and  _530
REMARK  215  A    between atoms: _530  and  _531
REMARK  216  A    between atoms: _531  and  _532
REMARK  217  A    between atoms: _535  and  _537
REMARK  218  A    between atoms: _537  and  _538
REMARK  219  A    between atoms: _537  and  _540
REMARK  220  A    between atoms: _540  and  _541
REMARK  221  A    between atoms: _541  and  _542
REMARK  222  A    between atoms: _542  and  _543
REMARK  223  A    between atoms: _552  and  _554
REMARK  224  A    between atoms: _554  and  _555
REMARK  225  A    between atoms: _554  and  _557
REMARK  226  A    between atoms: _557  and  _558
REMARK  227  A    between atoms: _561  and  _563
REMARK  228  A    between atoms: _563  and  _564
REMARK  229  A    between atoms: _563  and  _566
REMARK  230  A    between atoms: _566  and  _567
REMARK  231  A    between atoms: _569  and  _571
REMARK  232  A    between atoms: _571  and  _572
REMARK  233  A    between atoms: _571  and  _574
REMARK  234  A    between atoms: _574  and  _575
REMARK  235  A    between atoms: _575  and  _576
REMARK  236  A    between atoms: _576  and  _577
REMARK  237  A    between atoms: _577  and  _578
REMARK  238  A    between atoms: _582  and  _584
REMARK  239  A    between atoms: _584  and  _585
REMARK  240  A    between atoms: _584  and  _587
REMARK  241  A    between atoms: _587  and  _588
REMARK  242  A    between atoms: _591  and  _593
REMARK  243  A    between atoms: _593  and  _594
REMARK  244  A    between atoms: _596  and  _598
REMARK  245  A    between atoms: _598  and  _599
REMARK  246  A    between atoms: _598  and  _601
REMARK  247  A    between atoms: _601  and  _602
REMARK  248  A    between atoms: _604  and  _606
REMARK  249  A    between atoms: _606  and  _607
REMARK  250  A    between atoms: _609  and  _611
REMARK  251  A    between atoms: _611  and  _612
REMARK  252  A    between atoms: _611  and  _614
REMARK  253  A    between atoms: _614  and  _615
REMARK  254  A    between atoms: _620  and  _622
REMARK  255  A    between atoms: _622  and  _623
REMARK  256  A    between atoms: _622  and  _625
REMARK  257  A    between atoms: _625  and  _626
REMARK  258  A    between atoms: _629  and  _631
REMARK  259  A    between atoms: _631  and  _632
REMARK  260  A    between atoms: _631  and  _634
REMARK  261  A    between atoms: _634  and  _635
REMARK  262  A    between atoms: _641  and  _643
REMARK  263  A    between atoms: _643  and  _644
REMARK  264  A    between atoms: _643  and  _646
REMARK  265  A    between atoms: _646  and  _647
REMARK  266  A    between atoms: _647  and  _648
REMARK  267  A    between atoms: _651  and  _653
REMARK  268  A    between atoms: _653  and  _654
REMARK  269  A    between atoms: _653  and  _656
REMARK  270  A    between atoms: _656  and  _657
REMARK  271  A    between atoms: _657  and  _658
REMARK  272  A    between atoms: _663  and  _665
REMARK  273  A    between atoms: _665  and  _666
REMARK  274  A    between atoms: _665  and  _668
REMARK  275  A    between atoms: _668  and  _669
REMARK  276  A    between atoms: _669  and  _670
REMARK  277  A    between atoms: _670  and  _671
REMARK  278  A    between atoms: _680  and  _682
REMARK  279  A    between atoms: _682  and  _683
REMARK  280  A    between atoms: _682  and  _685
REMARK  281  A    between atoms: _685  and  _686
REMARK  282  A    between atoms: _686  and  _687
REMARK  283  A    between atoms: _687  and  _688
REMARK  284  A    between atoms: _697  and  _699
REMARK  285  A    between atoms: _699  and  _700
REMARK  286  A    between atoms: _699  and  _702
REMARK  287  A    between atoms: _702  and  _703
REMARK  288  A    between atoms: _708  and  _709
REMARK  289  A    between atoms: _711  and  _713
REMARK  290  A    between atoms: _713  and  _714
REMARK  291  A    between atoms: _713  and  _716
REMARK  292  A    between atoms: _716  and  _717
REMARK  293  A    between atoms: _720  and  _722
REMARK  294  A    between atoms: _722  and  _723
REMARK  295  A    between atoms: _722  and  _725
REMARK  296  A    between atoms: _725  and  _726
REMARK  297  A    between atoms: _726  and  _727
REMARK  298  A    between atoms: _727  and  _728
REMARK  299  A    between atoms: _728  and  _729
REMARK  300  A    between atoms: _733  and  _735
REMARK  301  A    between atoms: _735  and  _736
REMARK  302  A    between atoms: _735  and  _738
REMARK  303  A    between atoms: _738  and  _739
REMARK  304  A    between atoms: _744  and  _746
REMARK  305  A    between atoms: _746  and  _747
REMARK  306  A    between atoms: _746  and  _749
REMARK  307  A    between atoms: _749  and  _750
REMARK  308  A    between atoms: _760  and  _762
REMARK  309  A    between atoms: _762  and  _763
REMARK  310  A    between atoms: _762  and  _765
REMARK  311  A    between atoms: _765  and  _766
REMARK  312  A    between atoms: _766  and  _767
REMARK  313  A    between atoms: _770  and  _772
REMARK  314  A    between atoms: _772  and  _773
REMARK  315  A    between atoms: _772  and  _775
REMARK  316  A    between atoms: _775  and  _776
REMARK  317  A    between atoms: _779  and  _781
REMARK  318  A    between atoms: _781  and  _782
REMARK  319  A    between atoms: _781  and  _784
REMARK  320  A    between atoms: _784  and  _785
REMARK  321  A    between atoms: _790  and  _792
REMARK  322  A    between atoms: _792  and  _793
REMARK  323  A    between atoms: _792  and  _795
REMARK  324  A    between atoms: _795  and  _796
REMARK  325  A    between atoms: _802  and  _804
REMARK  326  A    between atoms: _804  and  _805
REMARK  327  A    between atoms: _804  and  _807
REMARK  328  A    between atoms: _807  and  _808
REMARK  329  A    between atoms: _810  and  _812
REMARK  330  A    between atoms: _812  and  _813
REMARK  331  A    between atoms: _815  and  _817
REMARK  332  A    between atoms: _817  and  _818
REMARK  333  A    between atoms: _817  and  _820
REMARK  334  A    between atoms: _820  and  _821
REMARK  335  A    between atoms: _826  and  _827
REMARK  336  A    between atoms: _829  and  _831
REMARK  337  A    between atoms: _831  and  _832
REMARK  338  A    between atoms: _831  and  _834
REMARK  339  A    between atoms: _834  and  _835
REMARK  340  A    between atoms: _840  and  _841
REMARK  341  A    between atoms: _843  and  _845
REMARK  342  A    between atoms: _845  and  _846
REMARK  343  A    between atoms: _845  and  _848
REMARK  344  A    between atoms: _848  and  _849
REMARK  345  A    between atoms: _853  and  ZN_1037
REMARK  346  A    between atoms: _854  and  _856
REMARK  347  A    between atoms: _856  and  _857
REMARK  348  A    between atoms: _856  and  _859
REMARK  349  A    between atoms: _859  and  _860
REMARK  350  A    between atoms: _860  and  _861
REMARK  351  A    between atoms: _864  and  _866
REMARK  352  A    between atoms: _866  and  _867
REMARK  353  A    between atoms: _866  and  _869
REMARK  354  A    between atoms: _869  and  _870
REMARK  355  A    between atoms: _870  and  _871
REMARK  356  A    between atoms: _871  and  _872
REMARK  357  A    between atoms: _881  and  _883
REMARK  358  A    between atoms: _883  and  _884
REMARK  359  A    between atoms: _883  and  _886
REMARK  360  A    between atoms: _886  and  _887
REMARK  361  A    between atoms: _887  and  _888
REMARK  362  A    between atoms: _888  and  _889
REMARK  363  A    between atoms: _889  and  _890
REMARK  364  A    between atoms: _894  and  _896
REMARK  365  A    between atoms: _896  and  _897
REMARK  366  A    between atoms: _896  and  _899
REMARK  367  A    between atoms: _899  and  _900
REMARK  368  A    between atoms: _905  and  _906
REMARK  369  A    between atoms: _908  and  _910
REMARK  370  A    between atoms: _910  and  _911
REMARK  371  A    between atoms: _910  and  _913
REMARK  372  A    between atoms: _913  and  _914
REMARK  373  A    between atoms: _914  and  _915
REMARK  374  A    between atoms: _915  and  _916
REMARK  375  A    between atoms: _916  and  _917
REMARK  376  A    between atoms: _921  and  _923
REMARK  377  A    between atoms: _923  and  _924
REMARK  378  A    between atoms: _923  and  _926
REMARK  379  A    between atoms: _926  and  _927
REMARK  380  A    between atoms: _932  and  _933
REMARK  381  A    between atoms: _935  and  _937
REMARK  382  A    between atoms: _937  and  _938
REMARK  383  A    between atoms: _937  and  _940
REMARK  384  A    between atoms: _940  and  _941
REMARK  385  A    between atoms: _946  and  _947
REMARK  386  A    between atoms: _949  and  _951
REMARK  387  A    between atoms: _951  and  _952
REMARK  388  A    between atoms: _956  and  _957
REMARK  389  A    between atoms: _962  and  _964
REMARK  390  A    between atoms: _964  and  _965
REMARK  391  A    between atoms: _964  and  _967
REMARK  392  A    between atoms: _967  and  _968
REMARK  393  A    between atoms: _970  and  _972
REMARK  394  A    between atoms: _972  and  _973
REMARK  395  A    between atoms: _972  and  _975
REMARK  396  A    between atoms: _975  and  _976
REMARK  397  A    between atoms: _981  and  _983
REMARK  398  A    between atoms: _983  and  _984
REMARK  399  A    between atoms: _983  and  _986
REMARK  400  A    between atoms: _986  and  _987
REMARK  401  A    between atoms: _987  and  _988
REMARK  402  A    between atoms: _988  and  _989
REMARK  403  A    between atoms: _989  and  _990
REMARK  404  A    between atoms: _994  and  _996
REMARK  405  A    between atoms: _996  and  _997
REMARK  406  A    between atoms: _996  and  _999
REMARK  407  A    between atoms: _999  and  _1000
REMARK  408  A    between atoms: _1005  and  _1006
REMARK  409  A    between atoms: _1008  and  _1010
REMARK  410  A    between atoms: _1010  and  _1011
REMARK  411  A    between atoms: _1014  and  _1016
REMARK  412  A    between atoms: _1016  and  _1017
REMARK  413  A    between atoms: _1019  and  _1021
REMARK  414  A    between atoms: _1021  and  _1022
REMARK  415  A    between atoms: _1021  and  _1024
REMARK  416  A    between atoms: _1024  and  _1025
REMARK  417  A    between atoms: _1025  and  _1026
REMARK  418  A    between atoms: _1029  and  _1031
REMARK  419  A    between atoms: _1031  and  _1032
REMARK  420  A    between atoms: _1031  and  _1034
REMARK  421  A    between atoms: _1034  and  _1035
REMARK                            x       y       z     vdW  Elec       q    Type
REMARK                         _______ _______ _______ _____ _____    ______ ____
ROOT
ATOM      1  O   HOH     1      23.470  60.066  39.522  0.00  0.00    +0.000 OA
ENDROOT
TORSDOF 0
REMARK  Name = ../refined-set-2016/2xef/2xef_pocket.pdb
REMARK  421 active torsions:
REMARK  status: ('A' for Active; 'I' for Inactive)
REMARK    1  A    between atoms: _1  and  _3
REMARK    2  A    between atoms: _3  and  _4
REMARK    3  A    between atoms: _7  and  _9
REMARK    4  A    between atoms: _9  and  _10
REMARK    5  A    between atoms: _9  and  _12
REMARK    6  A    between atoms: _12  and  _13
REMARK    7  A    between atoms: _19  and  _21
REMARK    8  A    between atoms: _21  and  _22
REMARK    9  A    between atoms: _21  and  _24
REMARK   10  A    between atoms: _24  and  _25
REMARK   11  A    between atoms: _30  and  _31
REMARK   12  A    between atoms: _33  and  _35
REMARK   13  A    between atoms: _35  and  _36
REMARK   14  A    between atoms: _38  and  _40
REMARK   15  A    between atoms: _40  and  _41
REMARK   16  A    between atoms: _40  and  _43
REMARK   17  A    between atoms: _43  and  _44
REMARK   18  A    between atoms: _44  and  _45
REMARK   19  A    between atoms: _45  and  _46
REMARK   20  A    between atoms: _46  and  _47
REMARK   21  A    between atoms: _51  and  _53
REMARK   22  A    between atoms: _53  and  _54
REMARK   23  A    between atoms: _53  and  _56
REMARK   24  A    between atoms: _59  and  _61
REMARK   25  A    between atoms: _61  and  _62
REMARK   26  A    between atoms: _61  and  _64
REMARK   27  A    between atoms: _64  and  _65
REMARK   28  A    between atoms: _71  and  _73
REMARK   29  A    between atoms: _73  and  _74
REMARK   30  A    between atoms: _73  and  _76
REMARK   31  A    between atoms: _76  and  _77
REMARK   32  A    between atoms: _77  and  _78
REMARK   33  A    between atoms: _78  and  _79
REMARK   34  A    between atoms: _88  and  _90
REMARK   35  A    between atoms: _90  and  _91
REMARK   36  A    between atoms: _93  and  _95
REMARK   37  A    between atoms: _95  and  _96
REMARK   38  A    between atoms: _95  and  _98
REMARK   39  A    between atoms: _98  and  _99
REMARK   40  A    between atoms: _99  and  _100
REMARK   41  A    between atoms: _100  and  _101
REMARK   42  A    between atoms: _101  and  _102
REMARK   43  A    between atoms: _106  and  _108
REMARK   44  A    between atoms: _108  and  _109
REMARK   45  A    between atoms: _108  and  _111
REMARK   46  A    between atoms: _111  and  _112
REMARK   47  A    between atoms: _117  and  _118
REMARK   48  A    between atoms: _120  and  _122
REMARK   49  A    between atoms: _122  and  _123
REMARK   50  A    between atoms: _122  and  _125
REMARK   51  A    between atoms: _125  and  _126
REMARK   52  A    between atoms: _126  and  _127
REMARK   53  A    between atoms: _132  and  _134
REMARK   54  A    between atoms: _134  and  _135
REMARK   55  A    between atoms: _134  and  _137
REMARK   56  A    between atoms: _137  and  _138
REMARK   57  A    between atoms: _138  and  _139
REMARK   58  A    between atoms: _139  and  _140
REMARK   59  A    between atoms: _149  and  _151
REMARK   60  A    between atoms: _151  and  _152
REMARK   61  A    between atoms: _154  and  _156
REMARK   62  A    between atoms: _156  and  _157
REMARK   63  A    between atoms: _156  and  _159
REMARK   64  A    between atoms: _159  and  _160
REMARK   65  A    between atoms: _165  and  _167
REMARK   66  A    between atoms: _167  and  _168
REMARK   67  A    between atoms: _167  and  _170
REMARK   68  A    between atoms: _170  and  _171
REMARK   69  A    between atoms: _174  and  _176
REMARK   70  A    between atoms: _176  and  _177
REMARK   71  A    between atoms: _176  and  _179
REMARK   72  A    between atoms: _179  and  _180
REMARK   73  A    between atoms: _183  and  _185
REMARK   74  A    between atoms: _185  and  _186
REMARK   75  A    between atoms: _185  and  _188
REMARK   76  A    between atoms: _188  and  _189
REMARK   77  A    between atoms: _194  and  _196
REMARK   78  A    between atoms: _196  and  _197
REMARK   79  A    between atoms: _196  and  _199
REMARK   80  A    between atoms: _199  and  _200
REMARK   81  A    between atoms: _203  and  _205
REMARK   82  A    between atoms: _205  and  _206
REMARK   83  A    between atoms: _205  and  _208
REMARK   84  A    between atoms: _208  and  _209
REMARK   85  A    between atoms: _214  and  _216
REMARK   86  A    between atoms: _216  and  _217
REMARK   87  A    between atoms: _219  and  _221
REMARK   88  A    between atoms: _221  and  _222
REMARK   89  A    between atoms: _224  and  _226
REMARK   90  A    between atoms: _226  and  _227
REMARK   91  A    between atoms: _226  and  _229
REMARK   92  A    between atoms: _229  and  _230
REMARK   93  A    between atoms: _234  and  ZN_1038
REMARK   94  A    between atoms: _235  and  _237
REMARK   95  A    between atoms: _237  and  _238
REMARK   96  A    between atoms: _237  and  _240
REMARK   97  A    between atoms: _240  and  _241
REMARK   98  A    between atoms: _244  and  _246
REMARK   99  A    between atoms: _246  and  _247
REMARK  100  A    between atoms: _246  and  _249
REMARK  101  A    between atoms: _249  and  _250
REMARK  102  A    between atoms: _260  and  _262
REMARK  103  A    between atoms: _262  and  _263
REMARK  104  A    between atoms: _262  and  _265
REMARK  105  A    between atoms: _265  and  _266
REMARK  106  A    between atoms: _269  and  _271
REMARK  107  A    between atoms: _271  and  _272
REMARK  108  A    between atoms: _271  and  _274
REMARK  109  A    between atoms: _274  and  _275
REMARK  110  A    between atoms: _279  and  _280
REMARK  111  A    between atoms: _285  and  _287
REMARK  112  A    between atoms: _287  and  _288
REMARK  113  A    between atoms: _291  and  _293
REMARK  114  A    between atoms: _293  and  _294
REMARK  115  A    between atoms: _293  and  _296
REMARK  116  A    between atoms: _296  and  _297
REMARK  117  A    between atoms: _297  and  _298
REMARK  118  A    between atoms: _301  and  _303
REMARK  119  A    between atoms: _303  and  _304
REMARK  120  A    between atoms: _303  and  _306
REMARK  121  A    between atoms: _306  and  _307
REMARK  122  A    between atoms: _307  and  _308
REMARK  123  A    between atoms: _308  and  _310
REMARK  124  A    between atoms: _310  and  ZN_1037
REMARK  125  A    between atoms: _311  and  _313
REMARK  126  A    between atoms: _313  and  _314
REMARK  127  A    between atoms: _313  and  _316
REMARK  128  A    between atoms: _316  and  _317
REMARK  129  A    between atoms: _323  and  _325
REMARK  130  A    between atoms: _325  and  _326
REMARK  131  A    between atoms: _328  and  _330
REMARK  132  A    between atoms: _330  and  _331
REMARK  133  A    between atoms: _330  and  _333
REMARK  134  A    between atoms: _333  and  _334
REMARK  135  A    between atoms: _337  and  _339
REMARK  136  A    between atoms: _339  and  _340
REMARK  137  A    between atoms: _339  and  _342
REMARK  138  A    between atoms: _342  and  _343
REMARK  139  A    between atoms: _346  and  _348
REMARK  140  A    between atoms: _348  and  _349
REMARK  141  A    between atoms: _348  and  _351
REMARK  142  A    between atoms: _351  and  _352
REMARK  143  A    between atoms: _357  and  _359
REMARK  144  A    between atoms: _359  and  _360
REMARK  145  A    between atoms: _359  and  _362
REMARK  146  A    between atoms: _362  and  _363
REMARK  147  A    between atoms: _363  and  _365
REMARK  148  A    between atoms: _365  and  ZN_1038
REMARK  149  A    between atoms: _366  and  _368
REMARK  150  A    between atoms: _368  and  _369
REMARK  151  A    between atoms: _368  and  _371
REMARK  152  A    between atoms: _371  and  _372
REMARK  153  A    between atoms: _374  and  _376
REMARK  154  A    between atoms: _376  and  _377
REMARK  155  A    between atoms: _376  and  _379
REMARK  156  A    between atoms: _379  and  _380
REMARK  157  A    between atoms: _382  and  _384
REMARK  158  A    between atoms: _384  and  _385
REMARK  159  A    between atoms: _384  and  _387
REMARK  160  A    between atoms: _387  and  _388
REMARK  161  A    between atoms: _391  and  _393
REMARK  162  A    between atoms: _393  and  _394
REMARK  163  A    between atoms: _393  and  _396
REMARK  164  A    between atoms: _396  and  _397
REMARK  165  A    between atoms: _397  and  _398
REMARK  166  A    between atoms: _401  and  _403
REMARK  167  A    between atoms: _403  and  _404
REMARK  168  A    between atoms: _403  and  _406
REMARK  169  A    between atoms: _406  and  _407
REMARK  170  A    between atoms: _412  and  _413
REMARK  171  A    between atoms: _415  and  _417
REMARK  172  A    between atoms: _417  and  _418
REMARK  173  A    between atoms: _417  and  _420
REMARK  174  A    between atoms: _420  and  _421
REMARK  175  A    between atoms: _424  and  _426
REMARK  176  A    between atoms: _426  and  _427
REMARK  177  A    between atoms: _426  and  _429
REMARK  178  A    between atoms: _429  and  _430
REMARK  179  A    between atoms: _433  and  _435
REMARK  180  A    between atoms: _435  and  _436
REMARK  181  A    between atoms: _435  and  _438
REMARK  182  A    between atoms: _438  and  _439
REMARK  183  A    between atoms: _439  and  _440
REMARK  184  A    between atoms: _440  and  _441
REMARK  185  A    between atoms: _450  and  _452
REMARK  186  A    between atoms: _452  and  _453
REMARK  187  A    between atoms: _452  and  _455
REMARK  188  A    between atoms: _458  and  _460
REMARK  189  A    between atoms: _460  and  _461
REMARK  190  A    between atoms: _460  and  _463
REMARK  191  A    between atoms: _463  and  _464
REMARK  192  A    between atoms: _467  and  _469
REMARK  193  A    between atoms: _469  and  _470
REMARK  194  A    between atoms: _469  and  _472
REMARK  195  A    between atoms: _474  and  _476
REMARK  196  A    between atoms: _476  and  _477
REMARK  197  A    between atoms: _476  and  _479
REMARK  198  A    between atoms: _479  and  _480
REMARK  199  A    between atoms: _490  and  _492
REMARK  200  A    between atoms: _492  and  _493
REMARK  201  A    between atoms: _492  and  _495
REMARK  202  A    between atoms: _495  and  _496
REMARK  203  A    between atoms: _496  and  _497
REMARK  204  A    between atoms: _497  and  _498
REMARK  205  A    between atoms: _498  and  _499
REMARK  206  A    between atoms: _503  and  _505
REMARK  207  A    between atoms: _505  and  _506
REMARK  208  A    between atoms: _505  and  _508
REMARK  209  A    between atoms: _508  and  _509
REMARK  210  A    between atoms: _512  and  _513
REMARK  211  A    between atoms: _519  and  _520
REMARK  212  A    between atoms: _525  and  _527
REMARK  213  A    between atoms: _527  and  _528
REMARK  214  A    between atoms: _527  and  _530
REMARK  215  A    between atoms: _530  and  _531
REMARK  216  A    between atoms: _531  and  _532
REMARK  217  A    between atoms: _535  and  _537
REMARK  218  A    between atoms: _537  and  _538
REMARK  219  A    between atoms: _537  and  _540
REMARK  220  A    between atoms: _540  and  _541
REMARK  221  A    between atoms: _541  and  _542
REMARK  222  A    between atoms: _542  and  _543
REMARK  223  A    between atoms: _552  and  _554
REMARK  224  A    between atoms: _554  and  _555
REMARK  225  A    between atoms: _554  and  _557
REMARK  226  A    between atoms: _557  and  _558
REMARK  227  A    between atoms: _561  and  _563
REMARK  228  A    between atoms: _563  and  _564
REMARK  229  A    between atoms: _563  and  _566
REMARK  230  A    between atoms: _566  and  _567
REMARK  231  A    between atoms: _569  and  _571
REMARK  232  A    between atoms: _571  and  _572
REMARK  233  A    between atoms: _571  and  _574
REMARK  234  A    between atoms: _574  and  _575
REMARK  235  A    between atoms: _575  and  _576
REMARK  236  A    between atoms: _576  and  _577
REMARK  237  A    between atoms: _577  and  _578
REMARK  238  A    between atoms: _582  and  _584
REMARK  239  A    between atoms: _584  and  _585
REMARK  240  A    between atoms: _584  and  _587
REMARK  241  A    between atoms: _587  and  _588
REMARK  242  A    between atoms: _591  and  _593
REMARK  243  A    between atoms: _593  and  _594
REMARK  244  A    between atoms: _596  and  _598
REMARK  245  A    between atoms: _598  and  _599
REMARK  246  A    between atoms: _598  and  _601
REMARK  247  A    between atoms: _601  and  _602
REMARK  248  A    between atoms: _604  and  _606
REMARK  249  A    between atoms: _606  and  _607
REMARK  250  A    between atoms: _609  and  _611
REMARK  251  A    between atoms: _611  and  _612
REMARK  252  A    between atoms: _611  and  _614
REMARK  253  A    between atoms: _614  and  _615
REMARK  254  A    between atoms: _620  and  _622
REMARK  255  A    between atoms: _622  and  _623
REMARK  256  A    between atoms: _622  and  _625
REMARK  257  A    between atoms: _625  and  _626
REMARK  258  A    between atoms: _629  and  _631
REMARK  259  A    between atoms: _631  and  _632
REMARK  260  A    between atoms: _631  and  _634
REMARK  261  A    between atoms: _634  and  _635
REMARK  262  A    between atoms: _641  and  _643
REMARK  263  A    between atoms: _643  and  _644
REMARK  264  A    between atoms: _643  and  _646
REMARK  265  A    between atoms: _646  and  _647
REMARK  266  A    between atoms: _647  and  _648
REMARK  267  A    between atoms: _651  and  _653
REMARK  268  A    between atoms: _653  and  _654
REMARK  269  A    between atoms: _653  and  _656
REMARK  270  A    between atoms: _656  and  _657
REMARK  271  A    between atoms: _657  and  _658
REMARK  272  A    between atoms: _663  and  _665
REMARK  273  A    between atoms: _665  and  _666
REMARK  274  A    between atoms: _665  and  _668
REMARK  275  A    between atoms: _668  and  _669
REMARK  276  A    between atoms: _669  and  _670
REMARK  277  A    between atoms: _670  and  _671
REMARK  278  A    between atoms: _680  and  _682
REMARK  279  A    between atoms: _682  and  _683
REMARK  280  A    between atoms: _682  and  _685
REMARK  281  A    between atoms: _685  and  _686
REMARK  282  A    between atoms: _686  and  _687
REMARK  283  A    between atoms: _687  and  _688
REMARK  284  A    between atoms: _697  and  _699
REMARK  285  A    between atoms: _699  and  _700
REMARK  286  A    between atoms: _699  and  _702
REMARK  287  A    between atoms: _702  and  _703
REMARK  288  A    between atoms: _708  and  _709
REMARK  289  A    between atoms: _711  and  _713
REMARK  290  A    between atoms: _713  and  _714
REMARK  291  A    between atoms: _713  and  _716
REMARK  292  A    between atoms: _716  and  _717
REMARK  293  A    between atoms: _720  and  _722
REMARK  294  A    between atoms: _722  and  _723
REMARK  295  A    between atoms: _722  and  _725
REMARK  296  A    between atoms: _725  and  _726
REMARK  297  A    between atoms: _726  and  _727
REMARK  298  A    between atoms: _727  and  _728
REMARK  299  A    between atoms: _728  and  _729
REMARK  300  A    between atoms: _733  and  _735
REMARK  301  A    between atoms: _735  and  _736
REMARK  302  A    between atoms: _735  and  _738
REMARK  303  A    between atoms: _738  and  _739
REMARK  304  A    between atoms: _744  and  _746
REMARK  305  A    between atoms: _746  and  _747
REMARK  306  A    between atoms: _746  and  _749
REMARK  307  A    between atoms: _749  and  _750
REMARK  308  A    between atoms: _760  and  _762
REMARK  309  A    between atoms: _762  and  _763
REMARK  310  A    between atoms: _762  and  _765
REMARK  311  A    between atoms: _765  and  _766
REMARK  312  A    between atoms: _766  and  _767
REMARK  313  A    between atoms: _770  and  _772
REMARK  314  A    between atoms: _772  and  _773
REMARK  315  A    between atoms: _772  and  _775
REMARK  316  A    between atoms: _775  and  _776
REMARK  317  A    between atoms: _779  and  _781
REMARK  318  A    between atoms: _781  and  _782
REMARK  319  A    between atoms: _781  and  _784
REMARK  320  A    between atoms: _784  and  _785
REMARK  321  A    between atoms: _790  and  _792
REMARK  322  A    between atoms: _792  and  _793
REMARK  323  A    between atoms: _792  and  _795
REMARK  324  A    between atoms: _795  and  _796
REMARK  325  A    between atoms: _802  and  _804
REMARK  326  A    between atoms: _804  and  _805
REMARK  327  A    between atoms: _804  and  _807
REMARK  328  A    between atoms: _807  and  _808
REMARK  329  A    between atoms: _810  and  _812
REMARK  330  A    between atoms: _812  and  _813
REMARK  331  A    between atoms: _815  and  _817
REMARK  332  A    between atoms: _817  and  _818
REMARK  333  A    between atoms: _817  and  _820
REMARK  334  A    between atoms: _820  and  _821
REMARK  335  A    between atoms: _826  and  _827
REMARK  336  A    between atoms: _829  and  _831
REMARK  337  A    between atoms: _831  and  _832
REMARK  338  A    between atoms: _831  and  _834
REMARK  339  A    between atoms: _834  and  _835
REMARK  340  A    between atoms: _840  and  _841
REMARK  341  A    between atoms: _843  and  _845
REMARK  342  A    between atoms: _845  and  _846
REMARK  343  A    between atoms: _845  and  _848
REMARK  344  A    between atoms: _848  and  _849
REMARK  345  A    between atoms: _853  and  ZN_1037
REMARK  346  A    between atoms: _854  and  _856
REMARK  347  A    between atoms: _856  and  _857
REMARK  348  A    between atoms: _856  and  _859
REMARK  349  A    between atoms: _859  and  _860
REMARK  350  A    between atoms: _860  and  _861
REMARK  351  A    between atoms: _864  and  _866
REMARK  352  A    between atoms: _866  and  _867
REMARK  353  A    between atoms: _866  and  _869
REMARK  354  A    between atoms: _869  and  _870
REMARK  355  A    between atoms: _870  and  _871
REMARK  356  A    between atoms: _871  and  _872
REMARK  357  A    between atoms: _881  and  _883
REMARK  358  A    between atoms: _883  and  _884
REMARK  359  A    between atoms: _883  and  _886
REMARK  360  A    between atoms: _886  and  _887
REMARK  361  A    between atoms: _887  and  _888
REMARK  362  A    between atoms: _888  and  _889
REMARK  363  A    between atoms: _889  and  _890
REMARK  364  A    between atoms: _894  and  _896
REMARK  365  A    between atoms: _896  and  _897
REMARK  366  A    between atoms: _896  and  _899
REMARK  367  A    between atoms: _899  and  _900
REMARK  368  A    between atoms: _905  and  _906
REMARK  369  A    between atoms: _908  and  _910
REMARK  370  A    between atoms: _910  and  _911
REMARK  371  A    between atoms: _910  and  _913
REMARK  372  A    between atoms: _913  and  _914
REMARK  373  A    between atoms: _914  and  _915
REMARK  374  A    between atoms: _915  and  _916
REMARK  375  A    between atoms: _916  and  _917
REMARK  376  A    between atoms: _921  and  _923
REMARK  377  A    between atoms: _923  and  _924
REMARK  378  A    between atoms: _923  and  _926
REMARK  379  A    between atoms: _926  and  _927
REMARK  380  A    between atoms: _932  and  _933
REMARK  381  A    between atoms: _935  and  _937
REMARK  382  A    between atoms: _937  and  _938
REMARK  383  A    between atoms: _937  and  _940
REMARK  384  A    between atoms: _940  and  _941
REMARK  385  A    between atoms: _946  and  _947
REMARK  386  A    between atoms: _949  and  _951
REMARK  387  A    between atoms: _951  and  _952
REMARK  388  A    between atoms: _956  and  _957
REMARK  389  A    between atoms: _962  and  _964
REMARK  390  A    between atoms: _964  and  _965
REMARK  391  A    between atoms: _964  and  _967
REMARK  392  A    between atoms: _967  and  _968
REMARK  393  A    between atoms: _970  and  _972
REMARK  394  A    between atoms: _972  and  _973
REMARK  395  A    between atoms: _972  and  _975
REMARK  396  A    between atoms: _975  and  _976
REMARK  397  A    between atoms: _981  and  _983
REMARK  398  A    between atoms: _983  and  _984
REMARK  399  A    between atoms: _983  and  _986
REMARK  400  A    between atoms: _986  and  _987
REMARK  401  A    between atoms: _987  and  _988
REMARK  402  A    between atoms: _988  and  _989
REMARK  403  A    between atoms: _989  and  _990
REMARK  404  A    between atoms: _994  and  _996
REMARK  405  A    between atoms: _996  and  _997
REMARK  406  A    between atoms: _996  and  _999
REMARK  407  A    between atoms: _999  and  _1000
REMARK  408  A    between atoms: _1005  and  _1006
REMARK  409  A    between atoms: _1008  and  _1010
REMARK  410  A    between atoms: _1010  and  _1011
REMARK  411  A    between atoms: _1014  and  _1016
REMARK  412  A    between atoms: _1016  and  _1017
REMARK  413  A    between atoms: _1019  and  _1021
REMARK  414  A    between atoms: _1021  and  _1022
REMARK  415  A    between atoms: _1021  and  _1024
REMARK  416  A    between atoms: _1024  and  _1025
REMARK  417  A    between atoms: _1025  and  _1026
REMARK  418  A    between atoms: _1029  and  _1031
REMARK  419  A    between atoms: _1031  and  _1032
REMARK  420  A    between atoms: _1031  and  _1034
REMARK  421  A    between atoms: _1034  and  _1035
REMARK                            x       y       z     vdW  Elec       q    Type
REMARK                         _______ _______ _______ _____ _____    ______ ____
ROOT
ATOM      1  O   HOH     1      25.656  63.138  38.718  0.00  0.00    +0.000 OA
ENDROOT
TORSDOF 0
REMARK  Name = ../refined-set-2016/2xef/2xef_pocket.pdb
REMARK  421 active torsions:
REMARK  status: ('A' for Active; 'I' for Inactive)
REMARK    1  A    between atoms: _1  and  _3
REMARK    2  A    between atoms: _3  and  _4
REMARK    3  A    between atoms: _7  and  _9
REMARK    4  A    between atoms: _9  and  _10
REMARK    5  A    between atoms: _9  and  _12
REMARK    6  A    between atoms: _12  and  _13
REMARK    7  A    between atoms: _19  and  _21
REMARK    8  A    between atoms: _21  and  _22
REMARK    9  A    between atoms: _21  and  _24
REMARK   10  A    between atoms: _24  and  _25
REMARK   11  A    between atoms: _30  and  _31
REMARK   12  A    between atoms: _33  and  _35
REMARK   13  A    between atoms: _35  and  _36
REMARK   14  A    between atoms: _38  and  _40
REMARK   15  A    between atoms: _40  and  _41
REMARK   16  A    between atoms: _40  and  _43
REMARK   17  A    between atoms: _43  and  _44
REMARK   18  A    between atoms: _44  and  _45
REMARK   19  A    between atoms: _45  and  _46
REMARK   20  A    between atoms: _46  and  _47
REMARK   21  A    between atoms: _51  and  _53
REMARK   22  A    between atoms: _53  and  _54
REMARK   23  A    between atoms: _53  and  _56
REMARK   24  A    between atoms: _59  and  _61
REMARK   25  A    between atoms: _61  and  _62
REMARK   26  A    between atoms: _61  and  _64
REMARK   27  A    between atoms: _64  and  _65
REMARK   28  A    between atoms: _71  and  _73
REMARK   29  A    between atoms: _73  and  _74
REMARK   30  A    between atoms: _73  and  _76
REMARK   31  A    between atoms: _76  and  _77
REMARK   32  A    between atoms: _77  and  _78
REMARK   33  A    between atoms: _78  and  _79
REMARK   34  A    between atoms: _88  and  _90
REMARK   35  A    between atoms: _90  and  _91
REMARK   36  A    between atoms: _93  and  _95
REMARK   37  A    between atoms: _95  and  _96
REMARK   38  A    between atoms: _95  and  _98
REMARK   39  A    between atoms: _98  and  _99
REMARK   40  A    between atoms: _99  and  _100
REMARK   41  A    between atoms: _100  and  _101
REMARK   42  A    between atoms: _101  and  _102
REMARK   43  A    between atoms: _106  and  _108
REMARK   44  A    between atoms: _108  and  _109
REMARK   45  A    between atoms: _108  and  _111
REMARK   46  A    between atoms: _111  and  _112
REMARK   47  A    between atoms: _117  and  _118
REMARK   48  A    between atoms: _120  and  _122
REMARK   49  A    between atoms: _122  and  _123
REMARK   50  A    between atoms: _122  and  _125
REMARK   51  A    between atoms: _125  and  _126
REMARK   52  A    between atoms: _126  and  _127
REMARK   53  A    between atoms: _132  and  _134
REMARK   54  A    between atoms: _134  and  _135
REMARK   55  A    between atoms: _134  and  _137
REMARK   56  A    between atoms: _137  and  _138
REMARK   57  A    between atoms: _138  and  _139
REMARK   58  A    between atoms: _139  and  _140
REMARK   59  A    between atoms: _149  and  _151
REMARK   60  A    between atoms: _151  and  _152
REMARK   61  A    between atoms: _154  and  _156
REMARK   62  A    between atoms: _156  and  _157
REMARK   63  A    between atoms: _156  and  _159
REMARK   64  A    between atoms: _159  and  _160
REMARK   65  A    between atoms: _165  and  _167
REMARK   66  A    between atoms: _167  and  _168
REMARK   67  A    between atoms: _167  and  _170
REMARK   68  A    between atoms: _170  and  _171
REMARK   69  A    between atoms: _174  and  _176
REMARK   70  A    between atoms: _176  and  _177
REMARK   71  A    between atoms: _176  and  _179
REMARK   72  A    between atoms: _179  and  _180
REMARK   73  A    between atoms: _183  and  _185
REMARK   74  A    between atoms: _185  and  _186
REMARK   75  A    between atoms: _185  and  _188
REMARK   76  A    between atoms: _188  and  _189
REMARK   77  A    between atoms: _194  and  _196
REMARK   78  A    between atoms: _196  and  _197
REMARK   79  A    between atoms: _196  and  _199
REMARK   80  A    between atoms: _199  and  _200
REMARK   81  A    between atoms: _203  and  _205
REMARK   82  A    between atoms: _205  and  _206
REMARK   83  A    between atoms: _205  and  _208
REMARK   84  A    between atoms: _208  and  _209
REMARK   85  A    between atoms: _214  and  _216
REMARK   86  A    between atoms: _216  and  _217
REMARK   87  A    between atoms: _219  and  _221
REMARK   88  A    between atoms: _221  and  _222
REMARK   89  A    between atoms: _224  and  _226
REMARK   90  A    between atoms: _226  and  _227
REMARK   91  A    between atoms: _226  and  _229
REMARK   92  A    between atoms: _229  and  _230
REMARK   93  A    between atoms: _234  and  ZN_1038
REMARK   94  A    between atoms: _235  and  _237
REMARK   95  A    between atoms: _237  and  _238
REMARK   96  A    between atoms: _237  and  _240
REMARK   97  A    between atoms: _240  and  _241
REMARK   98  A    between atoms: _244  and  _246
REMARK   99  A    between atoms: _246  and  _247
REMARK  100  A    between atoms: _246  and  _249
REMARK  101  A    between atoms: _249  and  _250
REMARK  102  A    between atoms: _260  and  _262
REMARK  103  A    between atoms: _262  and  _263
REMARK  104  A    between atoms: _262  and  _265
REMARK  105  A    between atoms: _265  and  _266
REMARK  106  A    between atoms: _269  and  _271
REMARK  107  A    between atoms: _271  and  _272
REMARK  108  A    between atoms: _271  and  _274
REMARK  109  A    between atoms: _274  and  _275
REMARK  110  A    between atoms: _279  and  _280
REMARK  111  A    between atoms: _285  and  _287
REMARK  112  A    between atoms: _287  and  _288
REMARK  113  A    between atoms: _291  and  _293
REMARK  114  A    between atoms: _293  and  _294
REMARK  115  A    between atoms: _293  and  _296
REMARK  116  A    between atoms: _296  and  _297
REMARK  117  A    between atoms: _297  and  _298
REMARK  118  A    between atoms: _301  and  _303
REMARK  119  A    between atoms: _303  and  _304
REMARK  120  A    between atoms: _303  and  _306
REMARK  121  A    between atoms: _306  and  _307
REMARK  122  A    between atoms: _307  and  _308
REMARK  123  A    between atoms: _308  and  _310
REMARK  124  A    between atoms: _310  and  ZN_1037
REMARK  125  A    between atoms: _311  and  _313
REMARK  126  A    between atoms: _313  and  _314
REMARK  127  A    between atoms: _313  and  _316
REMARK  128  A    between atoms: _316  and  _317
REMARK  129  A    between atoms: _323  and  _325
REMARK  130  A    between atoms: _325  and  _326
REMARK  131  A    between atoms: _328  and  _330
REMARK  132  A    between atoms: _330  and  _331
REMARK  133  A    between atoms: _330  and  _333
REMARK  134  A    between atoms: _333  and  _334
REMARK  135  A    between atoms: _337  and  _339
REMARK  136  A    between atoms: _339  and  _340
REMARK  137  A    between atoms: _339  and  _342
REMARK  138  A    between atoms: _342  and  _343
REMARK  139  A    between atoms: _346  and  _348
REMARK  140  A    between atoms: _348  and  _349
REMARK  141  A    between atoms: _348  and  _351
REMARK  142  A    between atoms: _351  and  _352
REMARK  143  A    between atoms: _357  and  _359
REMARK  144  A    between atoms: _359  and  _360
REMARK  145  A    between atoms: _359  and  _362
REMARK  146  A    between atoms: _362  and  _363
REMARK  147  A    between atoms: _363  and  _365
REMARK  148  A    between atoms: _365  and  ZN_1038
REMARK  149  A    between atoms: _366  and  _368
REMARK  150  A    between atoms: _368  and  _369
REMARK  151  A    between atoms: _368  and  _371
REMARK  152  A    between atoms: _371  and  _372
REMARK  153  A    between atoms: _374  and  _376
REMARK  154  A    between atoms: _376  and  _377
REMARK  155  A    between atoms: _376  and  _379
REMARK  156  A    between atoms: _379  and  _380
REMARK  157  A    between atoms: _382  and  _384
REMARK  158  A    between atoms: _384  and  _385
REMARK  159  A    between atoms: _384  and  _387
REMARK  160  A    between atoms: _387  and  _388
REMARK  161  A    between atoms: _391  and  _393
REMARK  162  A    between atoms: _393  and  _394
REMARK  163  A    between atoms: _393  and  _396
REMARK  164  A    between atoms: _396  and  _397
REMARK  165  A    between atoms: _397  and  _398
REMARK  166  A    between atoms: _401  and  _403
REMARK  167  A    between atoms: _403  and  _404
REMARK  168  A    between atoms: _403  and  _406
REMARK  169  A    between atoms: _406  and  _407
REMARK  170  A    between atoms: _412  and  _413
REMARK  171  A    between atoms: _415  and  _417
REMARK  172  A    between atoms: _417  and  _418
REMARK  173  A    between atoms: _417  and  _420
REMARK  174  A    between atoms: _420  and  _421
REMARK  175  A    between atoms: _424  and  _426
REMARK  176  A    between atoms: _426  and  _427
REMARK  177  A    between atoms: _426  and  _429
REMARK  178  A    between atoms: _429  and  _430
REMARK  179  A    between atoms: _433  and  _435
REMARK  180  A    between atoms: _435  and  _436
REMARK  181  A    between atoms: _435  and  _438
REMARK  182  A    between atoms: _438  and  _439
REMARK  183  A    between atoms: _439  and  _440
REMARK  184  A    between atoms: _440  and  _441
REMARK  185  A    between atoms: _450  and  _452
REMARK  186  A    between atoms: _452  and  _453
REMARK  187  A    between atoms: _452  and  _455
REMARK  188  A    between atoms: _458  and  _460
REMARK  189  A    between atoms: _460  and  _461
REMARK  190  A    between atoms: _460  and  _463
REMARK  191  A    between atoms: _463  and  _464
REMARK  192  A    between atoms: _467  and  _469
REMARK  193  A    between atoms: _469  and  _470
REMARK  194  A    between atoms: _469  and  _472
REMARK  195  A    between atoms: _474  and  _476
REMARK  196  A    between atoms: _476  and  _477
REMARK  197  A    between atoms: _476  and  _479
REMARK  198  A    between atoms: _479  and  _480
REMARK  199  A    between atoms: _490  and  _492
REMARK  200  A    between atoms: _492  and  _493
REMARK  201  A    between atoms: _492  and  _495
REMARK  202  A    between atoms: _495  and  _496
REMARK  203  A    between atoms: _496  and  _497
REMARK  204  A    between atoms: _497  and  _498
REMARK  205  A    between atoms: _498  and  _499
REMARK  206  A    between atoms: _503  and  _505
REMARK  207  A    between atoms: _505  and  _506
REMARK  208  A    between atoms: _505  and  _508
REMARK  209  A    between atoms: _508  and  _509
REMARK  210  A    between atoms: _512  and  _513
REMARK  211  A    between atoms: _519  and  _520
REMARK  212  A    between atoms: _525  and  _527
REMARK  213  A    between atoms: _527  and  _528
REMARK  214  A    between atoms: _527  and  _530
REMARK  215  A    between atoms: _530  and  _531
REMARK  216  A    between atoms: _531  and  _532
REMARK  217  A    between atoms: _535  and  _537
REMARK  218  A    between atoms: _537  and  _538
REMARK  219  A    between atoms: _537  and  _540
REMARK  220  A    between atoms: _540  and  _541
REMARK  221  A    between atoms: _541  and  _542
REMARK  222  A    between atoms: _542  and  _543
REMARK  223  A    between atoms: _552  and  _554
REMARK  224  A    between atoms: _554  and  _555
REMARK  225  A    between atoms: _554  and  _557
REMARK  226  A    between atoms: _557  and  _558
REMARK  227  A    between atoms: _561  and  _563
REMARK  228  A    between atoms: _563  and  _564
REMARK  229  A    between atoms: _563  and  _566
REMARK  230  A    between atoms: _566  and  _567
REMARK  231  A    between atoms: _569  and  _571
REMARK  232  A    between atoms: _571  and  _572
REMARK  233  A    between atoms: _571  and  _574
REMARK  234  A    between atoms: _574  and  _575
REMARK  235  A    between atoms: _575  and  _576
REMARK  236  A    between atoms: _576  and  _577
REMARK  237  A    between atoms: _577  and  _578
REMARK  238  A    between atoms: _582  and  _584
REMARK  239  A    between atoms: _584  and  _585
REMARK  240  A    between atoms: _584  and  _587
REMARK  241  A    between atoms: _587  and  _588
REMARK  242  A    between atoms: _591  and  _593
REMARK  243  A    between atoms: _593  and  _594
REMARK  244  A    between atoms: _596  and  _598
REMARK  245  A    between atoms: _598  and  _599
REMARK  246  A    between atoms: _598  and  _601
REMARK  247  A    between atoms: _601  and  _602
REMARK  248  A    between atoms: _604  and  _606
REMARK  249  A    between atoms: _606  and  _607
REMARK  250  A    between atoms: _609  and  _611
REMARK  251  A    between atoms: _611  and  _612
REMARK  252  A    between atoms: _611  and  _614
REMARK  253  A    between atoms: _614  and  _615
REMARK  254  A    between atoms: _620  and  _622
REMARK  255  A    between atoms: _622  and  _623
REMARK  256  A    between atoms: _622  and  _625
REMARK  257  A    between atoms: _625  and  _626
REMARK  258  A    between atoms: _629  and  _631
REMARK  259  A    between atoms: _631  and  _632
REMARK  260  A    between atoms: _631  and  _634
REMARK  261  A    between atoms: _634  and  _635
REMARK  262  A    between atoms: _641  and  _643
REMARK  263  A    between atoms: _643  and  _644
REMARK  264  A    between atoms: _643  and  _646
REMARK  265  A    between atoms: _646  and  _647
REMARK  266  A    between atoms: _647  and  _648
REMARK  267  A    between atoms: _651  and  _653
REMARK  268  A    between atoms: _653  and  _654
REMARK  269  A    between atoms: _653  and  _656
REMARK  270  A    between atoms: _656  and  _657
REMARK  271  A    between atoms: _657  and  _658
REMARK  272  A    between atoms: _663  and  _665
REMARK  273  A    between atoms: _665  and  _666
REMARK  274  A    between atoms: _665  and  _668
REMARK  275  A    between atoms: _668  and  _669
REMARK  276  A    between atoms: _669  and  _670
REMARK  277  A    between atoms: _670  and  _671
REMARK  278  A    between atoms: _680  and  _682
REMARK  279  A    between atoms: _682  and  _683
REMARK  280  A    between atoms: _682  and  _685
REMARK  281  A    between atoms: _685  and  _686
REMARK  282  A    between atoms: _686  and  _687
REMARK  283  A    between atoms: _687  and  _688
REMARK  284  A    between atoms: _697  and  _699
REMARK  285  A    between atoms: _699  and  _700
REMARK  286  A    between atoms: _699  and  _702
REMARK  287  A    between atoms: _702  and  _703
REMARK  288  A    between atoms: _708  and  _709
REMARK  289  A    between atoms: _711  and  _713
REMARK  290  A    between atoms: _713  and  _714
REMARK  291  A    between atoms: _713  and  _716
REMARK  292  A    between atoms: _716  and  _717
REMARK  293  A    between atoms: _720  and  _722
REMARK  294  A    between atoms: _722  and  _723
REMARK  295  A    between atoms: _722  and  _725
REMARK  296  A    between atoms: _725  and  _726
REMARK  297  A    between atoms: _726  and  _727
REMARK  298  A    between atoms: _727  and  _728
REMARK  299  A    between atoms: _728  and  _729
REMARK  300  A    between atoms: _733  and  _735
REMARK  301  A    between atoms: _735  and  _736
REMARK  302  A    between atoms: _735  and  _738
REMARK  303  A    between atoms: _738  and  _739
REMARK  304  A    between atoms: _744  and  _746
REMARK  305  A    between atoms: _746  and  _747
REMARK  306  A    between atoms: _746  and  _749
REMARK  307  A    between atoms: _749  and  _750
REMARK  308  A    between atoms: _760  and  _762
REMARK  309  A    between atoms: _762  and  _763
REMARK  310  A    between atoms: _762  and  _765
REMARK  311  A    between atoms: _765  and  _766
REMARK  312  A    between atoms: _766  and  _767
REMARK  313  A    between atoms: _770  and  _772
REMARK  314  A    between atoms: _772  and  _773
REMARK  315  A    between atoms: _772  and  _775
REMARK  316  A    between atoms: _775  and  _776
REMARK  317  A    between atoms: _779  and  _781
REMARK  318  A    between atoms: _781  and  _782
REMARK  319  A    between atoms: _781  and  _784
REMARK  320  A    between atoms: _784  and  _785
REMARK  321  A    between atoms: _790  and  _792
REMARK  322  A    between atoms: _792  and  _793
REMARK  323  A    between atoms: _792  and  _795
REMARK  324  A    between atoms: _795  and  _796
REMARK  325  A    between atoms: _802  and  _804
REMARK  326  A    between atoms: _804  and  _805
REMARK  327  A    between atoms: _804  and  _807
REMARK  328  A    between atoms: _807  and  _808
REMARK  329  A    between atoms: _810  and  _812
REMARK  330  A    between atoms: _812  and  _813
REMARK  331  A    between atoms: _815  and  _817
REMARK  332  A    between atoms: _817  and  _818
REMARK  333  A    between atoms: _817  and  _820
REMARK  334  A    between atoms: _820  and  _821
REMARK  335  A    between atoms: _826  and  _827
REMARK  336  A    between atoms: _829  and  _831
REMARK  337  A    between atoms: _831  and  _832
REMARK  338  A    between atoms: _831  and  _834
REMARK  339  A    between atoms: _834  and  _835
REMARK  340  A    between atoms: _840  and  _841
REMARK  341  A    between atoms: _843  and  _845
REMARK  342  A    between atoms: _845  and  _846
REMARK  343  A    between atoms: _845  and  _848
REMARK  344  A    between atoms: _848  and  _849
REMARK  345  A    between atoms: _853  and  ZN_1037
REMARK  346  A    between atoms: _854  and  _856
REMARK  347  A    between atoms: _856  and  _857
REMARK  348  A    between atoms: _856  and  _859
REMARK  349  A    between atoms: _859  and  _860
REMARK  350  A    between atoms: _860  and  _861
REMARK  351  A    between atoms: _864  and  _866
REMARK  352  A    between atoms: _866  and  _867
REMARK  353  A    between atoms: _866  and  _869
REMARK  354  A    between atoms: _869  and  _870
REMARK  355  A    between atoms: _870  and  _871
REMARK  356  A    between atoms: _871  and  _872
REMARK  357  A    between atoms: _881  and  _883
REMARK  358  A    between atoms: _883  and  _884
REMARK  359  A    between atoms: _883  and  _886
REMARK  360  A    between atoms: _886  and  _887
REMARK  361  A    between atoms: _887  and  _888
REMARK  362  A    between atoms: _888  and  _889
REMARK  363  A    between atoms: _889  and  _890
REMARK  364  A    between atoms: _894  and  _896
REMARK  365  A    between atoms: _896  and  _897
REMARK  366  A    between atoms: _896  and  _899
REMARK  367  A    between atoms: _899  and  _900
REMARK  368  A    between atoms: _905  and  _906
REMARK  369  A    between atoms: _908  and  _910
REMARK  370  A    between atoms: _910  and  _911
REMARK  371  A    between atoms: _910  and  _913
REMARK  372  A    between atoms: _913  and  _914
REMARK  373  A    between atoms: _914  and  _915
REMARK  374  A    between atoms: _915  and  _916
REMARK  375  A    between atoms: _916  and  _917
REMARK  376  A    between atoms: _921  and  _923
REMARK  377  A    between atoms: _923  and  _924
REMARK  378  A    between atoms: _923  and  _926
REMARK  379  A    between atoms: _926  and  _927
REMARK  380  A    between atoms: _932  and  _933
REMARK  381  A    between atoms: _935  and  _937
REMARK  382  A    between atoms: _937  and  _938
REMARK  383  A    between atoms: _937  and  _940
REMARK  384  A    between atoms: _940  and  _941
REMARK  385  A    between atoms: _946  and  _947
REMARK  386  A    between atoms: _949  and  _951
REMARK  387  A    between atoms: _951  and  _952
REMARK  388  A    between atoms: _956  and  _957
REMARK  389  A    between atoms: _962  and  _964
REMARK  390  A    between atoms: _964  and  _965
REMARK  391  A    between atoms: _964  and  _967
REMARK  392  A    between atoms: _967  and  _968
REMARK  393  A    between atoms: _970  and  _972
REMARK  394  A    between atoms: _972  and  _973
REMARK  395  A    between atoms: _972  and  _975
REMARK  396  A    between atoms: _975  and  _976
REMARK  397  A    between atoms: _981  and  _983
REMARK  398  A    between atoms: _983  and  _984
REMARK  399  A    between atoms: _983  and  _986
REMARK  400  A    between atoms: _986  and  _987
REMARK  401  A    between atoms: _987  and  _988
REMARK  402  A    between atoms: _988  and  _989
REMARK  403  A    between atoms: _989  and  _990
REMARK  404  A    between atoms: _994  and  _996
REMARK  405  A    between atoms: _996  and  _997
REMARK  406  A    between atoms: _996  and  _999
REMARK  407  A    between atoms: _999  and  _1000
REMARK  408  A    between atoms: _1005  and  _1006
REMARK  409  A    between atoms: _1008  and  _1010
REMARK  410  A    between atoms: _1010  and  _1011
REMARK  411  A    between atoms: _1014  and  _1016
REMARK  412  A    between atoms: _1016  and  _1017
REMARK  413  A    between atoms: _1019  and  _1021
REMARK  414  A    between atoms: _1021  and  _1022
REMARK  415  A    between atoms: _1021  and  _1024
REMARK  416  A    between atoms: _1024  and  _1025
REMARK  417  A    between atoms: _1025  and  _1026
REMARK  418  A    between atoms: _1029  and  _1031
REMARK  419  A    between atoms: _1031  and  _1032
REMARK  420  A    between atoms: _1031  and  _1034
REMARK  421  A    between atoms: _1034  and  _1035
REMARK                            x       y       z     vdW  Elec       q    Type
REMARK                         _______ _______ _______ _____ _____    ______ ____
ROOT
ATOM      1  O   HOH     1      25.009  64.674  44.452  0.00  0.00    +0.000 OA
ENDROOT
TORSDOF 0
REMARK  Name = ../refined-set-2016/2xef/2xef_pocket.pdb
REMARK  421 active torsions:
REMARK  status: ('A' for Active; 'I' for Inactive)
REMARK    1  A    between atoms: _1  and  _3
REMARK    2  A    between atoms: _3  and  _4
REMARK    3  A    between atoms: _7  and  _9
REMARK    4  A    between atoms: _9  and  _10
REMARK    5  A    between atoms: _9  and  _12
REMARK    6  A    between atoms: _12  and  _13
REMARK    7  A    between atoms: _19  and  _21
REMARK    8  A    between atoms: _21  and  _22
REMARK    9  A    between atoms: _21  and  _24
REMARK   10  A    between atoms: _24  and  _25
REMARK   11  A    between atoms: _30  and  _31
REMARK   12  A    between atoms: _33  and  _35
REMARK   13  A    between atoms: _35  and  _36
REMARK   14  A    between atoms: _38  and  _40
REMARK   15  A    between atoms: _40  and  _41
REMARK   16  A    between atoms: _40  and  _43
REMARK   17  A    between atoms: _43  and  _44
REMARK   18  A    between atoms: _44  and  _45
REMARK   19  A    between atoms: _45  and  _46
REMARK   20  A    between atoms: _46  and  _47
REMARK   21  A    between atoms: _51  and  _53
REMARK   22  A    between atoms: _53  and  _54
REMARK   23  A    between atoms: _53  and  _56
REMARK   24  A    between atoms: _59  and  _61
REMARK   25  A    between atoms: _61  and  _62
REMARK   26  A    between atoms: _61  and  _64
REMARK   27  A    between atoms: _64  and  _65
REMARK   28  A    between atoms: _71  and  _73
REMARK   29  A    between atoms: _73  and  _74
REMARK   30  A    between atoms: _73  and  _76
REMARK   31  A    between atoms: _76  and  _77
REMARK   32  A    between atoms: _77  and  _78
REMARK   33  A    between atoms: _78  and  _79
REMARK   34  A    between atoms: _88  and  _90
REMARK   35  A    between atoms: _90  and  _91
REMARK   36  A    between atoms: _93  and  _95
REMARK   37  A    between atoms: _95  and  _96
REMARK   38  A    between atoms: _95  and  _98
REMARK   39  A    between atoms: _98  and  _99
REMARK   40  A    between atoms: _99  and  _100
REMARK   41  A    between atoms: _100  and  _101
REMARK   42  A    between atoms: _101  and  _102
REMARK   43  A    between atoms: _106  and  _108
REMARK   44  A    between atoms: _108  and  _109
REMARK   45  A    between atoms: _108  and  _111
REMARK   46  A    between atoms: _111  and  _112
REMARK   47  A    between atoms: _117  and  _118
REMARK   48  A    between atoms: _120  and  _122
REMARK   49  A    between atoms: _122  and  _123
REMARK   50  A    between atoms: _122  and  _125
REMARK   51  A    between atoms: _125  and  _126
REMARK   52  A    between atoms: _126  and  _127
REMARK   53  A    between atoms: _132  and  _134
REMARK   54  A    between atoms: _134  and  _135
REMARK   55  A    between atoms: _134  and  _137
REMARK   56  A    between atoms: _137  and  _138
REMARK   57  A    between atoms: _138  and  _139
REMARK   58  A    between atoms: _139  and  _140
REMARK   59  A    between atoms: _149  and  _151
REMARK   60  A    between atoms: _151  and  _152
REMARK   61  A    between atoms: _154  and  _156
REMARK   62  A    between atoms: _156  and  _157
REMARK   63  A    between atoms: _156  and  _159
REMARK   64  A    between atoms: _159  and  _160
REMARK   65  A    between atoms: _165  and  _167
REMARK   66  A    between atoms: _167  and  _168
REMARK   67  A    between atoms: _167  and  _170
REMARK   68  A    between atoms: _170  and  _171
REMARK   69  A    between atoms: _174  and  _176
REMARK   70  A    between atoms: _176  and  _177
REMARK   71  A    between atoms: _176  and  _179
REMARK   72  A    between atoms: _179  and  _180
REMARK   73  A    between atoms: _183  and  _185
REMARK   74  A    between atoms: _185  and  _186
REMARK   75  A    between atoms: _185  and  _188
REMARK   76  A    between atoms: _188  and  _189
REMARK   77  A    between atoms: _194  and  _196
REMARK   78  A    between atoms: _196  and  _197
REMARK   79  A    between atoms: _196  and  _199
REMARK   80  A    between atoms: _199  and  _200
REMARK   81  A    between atoms: _203  and  _205
REMARK   82  A    between atoms: _205  and  _206
REMARK   83  A    between atoms: _205  and  _208
REMARK   84  A    between atoms: _208  and  _209
REMARK   85  A    between atoms: _214  and  _216
REMARK   86  A    between atoms: _216  and  _217
REMARK   87  A    between atoms: _219  and  _221
REMARK   88  A    between atoms: _221  and  _222
REMARK   89  A    between atoms: _224  and  _226
REMARK   90  A    between atoms: _226  and  _227
REMARK   91  A    between atoms: _226  and  _229
REMARK   92  A    between atoms: _229  and  _230
REMARK   93  A    between atoms: _234  and  ZN_1038
REMARK   94  A    between atoms: _235  and  _237
REMARK   95  A    between atoms: _237  and  _238
REMARK   96  A    between atoms: _237  and  _240
REMARK   97  A    between atoms: _240  and  _241
REMARK   98  A    between atoms: _244  and  _246
REMARK   99  A    between atoms: _246  and  _247
REMARK  100  A    between atoms: _246  and  _249
REMARK  101  A    between atoms: _249  and  _250
REMARK  102  A    between atoms: _260  and  _262
REMARK  103  A    between atoms: _262  and  _263
REMARK  104  A    between atoms: _262  and  _265
REMARK  105  A    between atoms: _265  and  _266
REMARK  106  A    between atoms: _269  and  _271
REMARK  107  A    between atoms: _271  and  _272
REMARK  108  A    between atoms: _271  and  _274
REMARK  109  A    between atoms: _274  and  _275
REMARK  110  A    between atoms: _279  and  _280
REMARK  111  A    between atoms: _285  and  _287
REMARK  112  A    between atoms: _287  and  _288
REMARK  113  A    between atoms: _291  and  _293
REMARK  114  A    between atoms: _293  and  _294
REMARK  115  A    between atoms: _293  and  _296
REMARK  116  A    between atoms: _296  and  _297
REMARK  117  A    between atoms: _297  and  _298
REMARK  118  A    between atoms: _301  and  _303
REMARK  119  A    between atoms: _303  and  _304
REMARK  120  A    between atoms: _303  and  _306
REMARK  121  A    between atoms: _306  and  _307
REMARK  122  A    between atoms: _307  and  _308
REMARK  123  A    between atoms: _308  and  _310
REMARK  124  A    between atoms: _310  and  ZN_1037
REMARK  125  A    between atoms: _311  and  _313
REMARK  126  A    between atoms: _313  and  _314
REMARK  127  A    between atoms: _313  and  _316
REMARK  128  A    between atoms: _316  and  _317
REMARK  129  A    between atoms: _323  and  _325
REMARK  130  A    between atoms: _325  and  _326
REMARK  131  A    between atoms: _328  and  _330
REMARK  132  A    between atoms: _330  and  _331
REMARK  133  A    between atoms: _330  and  _333
REMARK  134  A    between atoms: _333  and  _334
REMARK  135  A    between atoms: _337  and  _339
REMARK  136  A    between atoms: _339  and  _340
REMARK  137  A    between atoms: _339  and  _342
REMARK  138  A    between atoms: _342  and  _343
REMARK  139  A    between atoms: _346  and  _348
REMARK  140  A    between atoms: _348  and  _349
REMARK  141  A    between atoms: _348  and  _351
REMARK  142  A    between atoms: _351  and  _352
REMARK  143  A    between atoms: _357  and  _359
REMARK  144  A    between atoms: _359  and  _360
REMARK  145  A    between atoms: _359  and  _362
REMARK  146  A    between atoms: _362  and  _363
REMARK  147  A    between atoms: _363  and  _365
REMARK  148  A    between atoms: _365  and  ZN_1038
REMARK  149  A    between atoms: _366  and  _368
REMARK  150  A    between atoms: _368  and  _369
REMARK  151  A    between atoms: _368  and  _371
REMARK  152  A    between atoms: _371  and  _372
REMARK  153  A    between atoms: _374  and  _376
REMARK  154  A    between atoms: _376  and  _377
REMARK  155  A    between atoms: _376  and  _379
REMARK  156  A    between atoms: _379  and  _380
REMARK  157  A    between atoms: _382  and  _384
REMARK  158  A    between atoms: _384  and  _385
REMARK  159  A    between atoms: _384  and  _387
REMARK  160  A    between atoms: _387  and  _388
REMARK  161  A    between atoms: _391  and  _393
REMARK  162  A    between atoms: _393  and  _394
REMARK  163  A    between atoms: _393  and  _396
REMARK  164  A    between atoms: _396  and  _397
REMARK  165  A    between atoms: _397  and  _398
REMARK  166  A    between atoms: _401  and  _403
REMARK  167  A    between atoms: _403  and  _404
REMARK  168  A    between atoms: _403  and  _406
REMARK  169  A    between atoms: _406  and  _407
REMARK  170  A    between atoms: _412  and  _413
REMARK  171  A    between atoms: _415  and  _417
REMARK  172  A    between atoms: _417  and  _418
REMARK  173  A    between atoms: _417  and  _420
REMARK  174  A    between atoms: _420  and  _421
REMARK  175  A    between atoms: _424  and  _426
REMARK  176  A    between atoms: _426  and  _427
REMARK  177  A    between atoms: _426  and  _429
REMARK  178  A    between atoms: _429  and  _430
REMARK  179  A    between atoms: _433  and  _435
REMARK  180  A    between atoms: _435  and  _436
REMARK  181  A    between atoms: _435  and  _438
REMARK  182  A    between atoms: _438  and  _439
REMARK  183  A    between atoms: _439  and  _440
REMARK  184  A    between atoms: _440  and  _441
REMARK  185  A    between atoms: _450  and  _452
REMARK  186  A    between atoms: _452  and  _453
REMARK  187  A    between atoms: _452  and  _455
REMARK  188  A    between atoms: _458  and  _460
REMARK  189  A    between atoms: _460  and  _461
REMARK  190  A    between atoms: _460  and  _463
REMARK  191  A    between atoms: _463  and  _464
REMARK  192  A    between atoms: _467  and  _469
REMARK  193  A    between atoms: _469  and  _470
REMARK  194  A    between atoms: _469  and  _472
REMARK  195  A    between atoms: _474  and  _476
REMARK  196  A    between atoms: _476  and  _477
REMARK  197  A    between atoms: _476  and  _479
REMARK  198  A    between atoms: _479  and  _480
REMARK  199  A    between atoms: _490  and  _492
REMARK  200  A    between atoms: _492  and  _493
REMARK  201  A    between atoms: _492  and  _495
REMARK  202  A    between atoms: _495  and  _496
REMARK  203  A    between atoms: _496  and  _497
REMARK  204  A    between atoms: _497  and  _498
REMARK  205  A    between atoms: _498  and  _499
REMARK  206  A    between atoms: _503  and  _505
REMARK  207  A    between atoms: _505  and  _506
REMARK  208  A    between atoms: _505  and  _508
REMARK  209  A    between atoms: _508  and  _509
REMARK  210  A    between atoms: _512  and  _513
REMARK  211  A    between atoms: _519  and  _520
REMARK  212  A    between atoms: _525  and  _527
REMARK  213  A    between atoms: _527  and  _528
REMARK  214  A    between atoms: _527  and  _530
REMARK  215  A    between atoms: _530  and  _531
REMARK  216  A    between atoms: _531  and  _532
REMARK  217  A    between atoms: _535  and  _537
REMARK  218  A    between atoms: _537  and  _538
REMARK  219  A    between atoms: _537  and  _540
REMARK  220  A    between atoms: _540  and  _541
REMARK  221  A    between atoms: _541  and  _542
REMARK  222  A    between atoms: _542  and  _543
REMARK  223  A    between atoms: _552  and  _554
REMARK  224  A    between atoms: _554  and  _555
REMARK  225  A    between atoms: _554  and  _557
REMARK  226  A    between atoms: _557  and  _558
REMARK  227  A    between atoms: _561  and  _563
REMARK  228  A    between atoms: _563  and  _564
REMARK  229  A    between atoms: _563  and  _566
REMARK  230  A    between atoms: _566  and  _567
REMARK  231  A    between atoms: _569  and  _571
REMARK  232  A    between atoms: _571  and  _572
REMARK  233  A    between atoms: _571  and  _574
REMARK  234  A    between atoms: _574  and  _575
REMARK  235  A    between atoms: _575  and  _576
REMARK  236  A    between atoms: _576  and  _577
REMARK  237  A    between atoms: _577  and  _578
REMARK  238  A    between atoms: _582  and  _584
REMARK  239  A    between atoms: _584  and  _585
REMARK  240  A    between atoms: _584  and  _587
REMARK  241  A    between atoms: _587  and  _588
REMARK  242  A    between atoms: _591  and  _593
REMARK  243  A    between atoms: _593  and  _594
REMARK  244  A    between atoms: _596  and  _598
REMARK  245  A    between atoms: _598  and  _599
REMARK  246  A    between atoms: _598  and  _601
REMARK  247  A    between atoms: _601  and  _602
REMARK  248  A    between atoms: _604  and  _606
REMARK  249  A    between atoms: _606  and  _607
REMARK  250  A    between atoms: _609  and  _611
REMARK  251  A    between atoms: _611  and  _612
REMARK  252  A    between atoms: _611  and  _614
REMARK  253  A    between atoms: _614  and  _615
REMARK  254  A    between atoms: _620  and  _622
REMARK  255  A    between atoms: _622  and  _623
REMARK  256  A    between atoms: _622  and  _625
REMARK  257  A    between atoms: _625  and  _626
REMARK  258  A    between atoms: _629  and  _631
REMARK  259  A    between atoms: _631  and  _632
REMARK  260  A    between atoms: _631  and  _634
REMARK  261  A    between atoms: _634  and  _635
REMARK  262  A    between atoms: _641  and  _643
REMARK  263  A    between atoms: _643  and  _644
REMARK  264  A    between atoms: _643  and  _646
REMARK  265  A    between atoms: _646  and  _647
REMARK  266  A    between atoms: _647  and  _648
REMARK  267  A    between atoms: _651  and  _653
REMARK  268  A    between atoms: _653  and  _654
REMARK  269  A    between atoms: _653  and  _656
REMARK  270  A    between atoms: _656  and  _657
REMARK  271  A    between atoms: _657  and  _658
REMARK  272  A    between atoms: _663  and  _665
REMARK  273  A    between atoms: _665  and  _666
REMARK  274  A    between atoms: _665  and  _668
REMARK  275  A    between atoms: _668  and  _669
REMARK  276  A    between atoms: _669  and  _670
REMARK  277  A    between atoms: _670  and  _671
REMARK  278  A    between atoms: _680  and  _682
REMARK  279  A    between atoms: _682  and  _683
REMARK  280  A    between atoms: _682  and  _685
REMARK  281  A    between atoms: _685  and  _686
REMARK  282  A    between atoms: _686  and  _687
REMARK  283  A    between atoms: _687  and  _688
REMARK  284  A    between atoms: _697  and  _699
REMARK  285  A    between atoms: _699  and  _700
REMARK  286  A    between atoms: _699  and  _702
REMARK  287  A    between atoms: _702  and  _703
REMARK  288  A    between atoms: _708  and  _709
REMARK  289  A    between atoms: _711  and  _713
REMARK  290  A    between atoms: _713  and  _714
REMARK  291  A    between atoms: _713  and  _716
REMARK  292  A    between atoms: _716  and  _717
REMARK  293  A    between atoms: _720  and  _722
REMARK  294  A    between atoms: _722  and  _723
REMARK  295  A    between atoms: _722  and  _725
REMARK  296  A    between atoms: _725  and  _726
REMARK  297  A    between atoms: _726  and  _727
REMARK  298  A    between atoms: _727  and  _728
REMARK  299  A    between atoms: _728  and  _729
REMARK  300  A    between atoms: _733  and  _735
REMARK  301  A    between atoms: _735  and  _736
REMARK  302  A    between atoms: _735  and  _738
REMARK  303  A    between atoms: _738  and  _739
REMARK  304  A    between atoms: _744  and  _746
REMARK  305  A    between atoms: _746  and  _747
REMARK  306  A    between atoms: _746  and  _749
REMARK  307  A    between atoms: _749  and  _750
REMARK  308  A    between atoms: _760  and  _762
REMARK  309  A    between atoms: _762  and  _763
REMARK  310  A    between atoms: _762  and  _765
REMARK  311  A    between atoms: _765  and  _766
REMARK  312  A    between atoms: _766  and  _767
REMARK  313  A    between atoms: _770  and  _772
REMARK  314  A    between atoms: _772  and  _773
REMARK  315  A    between atoms: _772  and  _775
REMARK  316  A    between atoms: _775  and  _776
REMARK  317  A    between atoms: _779  and  _781
REMARK  318  A    between atoms: _781  and  _782
REMARK  319  A    between atoms: _781  and  _784
REMARK  320  A    between atoms: _784  and  _785
REMARK  321  A    between atoms: _790  and  _792
REMARK  322  A    between atoms: _792  and  _793
REMARK  323  A    between atoms: _792  and  _795
REMARK  324  A    between atoms: _795  and  _796
REMARK  325  A    between atoms: _802  and  _804
REMARK  326  A    between atoms: _804  and  _805
REMARK  327  A    between atoms: _804  and  _807
REMARK  328  A    between atoms: _807  and  _808
REMARK  329  A    between atoms: _810  and  _812
REMARK  330  A    between atoms: _812  and  _813
REMARK  331  A    between atoms: _815  and  _817
REMARK  332  A    between atoms: _817  and  _818
REMARK  333  A    between atoms: _817  and  _820
REMARK  334  A    between atoms: _820  and  _821
REMARK  335  A    between atoms: _826  and  _827
REMARK  336  A    between atoms: _829  and  _831
REMARK  337  A    between atoms: _831  and  _832
REMARK  338  A    between atoms: _831  and  _834
REMARK  339  A    between atoms: _834  and  _835
REMARK  340  A    between atoms: _840  and  _841
REMARK  341  A    between atoms: _843  and  _845
REMARK  342  A    between atoms: _845  and  _846
REMARK  343  A    between atoms: _845  and  _848
REMARK  344  A    between atoms: _848  and  _849
REMARK  345  A    between atoms: _853  and  ZN_1037
REMARK  346  A    between atoms: _854  and  _856
REMARK  347  A    between atoms: _856  and  _857
REMARK  348  A    between atoms: _856  and  _859
REMARK  349  A    between atoms: _859  and  _860
REMARK  350  A    between atoms: _860  and  _861
REMARK  351  A    between atoms: _864  and  _866
REMARK  352  A    between atoms: _866  and  _867
REMARK  353  A    between atoms: _866  and  _869
REMARK  354  A    between atoms: _869  and  _870
REMARK  355  A    between atoms: _870  and  _871
REMARK  356  A    between atoms: _871  and  _872
REMARK  357  A    between atoms: _881  and  _883
REMARK  358  A    between atoms: _883  and  _884
REMARK  359  A    between atoms: _883  and  _886
REMARK  360  A    between atoms: _886  and  _887
REMARK  361  A    between atoms: _887  and  _888
REMARK  362  A    between atoms: _888  and  _889
REMARK  363  A    between atoms: _889  and  _890
REMARK  364  A    between atoms: _894  and  _896
REMARK  365  A    between atoms: _896  and  _897
REMARK  366  A    between atoms: _896  and  _899
REMARK  367  A    between atoms: _899  and  _900
REMARK  368  A    between atoms: _905  and  _906
REMARK  369  A    between atoms: _908  and  _910
REMARK  370  A    between atoms: _910  and  _911
REMARK  371  A    between atoms: _910  and  _913
REMARK  372  A    between atoms: _913  and  _914
REMARK  373  A    between atoms: _914  and  _915
REMARK  374  A    between atoms: _915  and  _916
REMARK  375  A    between atoms: _916  and  _917
REMARK  376  A    between atoms: _921  and  _923
REMARK  377  A    between atoms: _923  and  _924
REMARK  378  A    between atoms: _923  and  _926
REMARK  379  A    between atoms: _926  and  _927
REMARK  380  A    between atoms: _932  and  _933
REMARK  381  A    between atoms: _935  and  _937
REMARK  382  A    between atoms: _937  and  _938
REMARK  383  A    between atoms: _937  and  _940
REMARK  384  A    between atoms: _940  and  _941
REMARK  385  A    between atoms: _946  and  _947
REMARK  386  A    between atoms: _949  and  _951
REMARK  387  A    between atoms: _951  and  _952
REMARK  388  A    between atoms: _956  and  _957
REMARK  389  A    between atoms: _962  and  _964
REMARK  390  A    between atoms: _964  and  _965
REMARK  391  A    between atoms: _964  and  _967
REMARK  392  A    between atoms: _967  and  _968
REMARK  393  A    between atoms: _970  and  _972
REMARK  394  A    between atoms: _972  and  _973
REMARK  395  A    between atoms: _972  and  _975
REMARK  396  A    between atoms: _975  and  _976
REMARK  397  A    between atoms: _981  and  _983
REMARK  398  A    between atoms: _983  and  _984
REMARK  399  A    between atoms: _983  and  _986
REMARK  400  A    between atoms: _986  and  _987
REMARK  401  A    between atoms: _987  and  _988
REMARK  402  A    between atoms: _988  and  _989
REMARK  403  A    between atoms: _989  and  _990
REMARK  404  A    between atoms: _994  and  _996
REMARK  405  A    between atoms: _996  and  _997
REMARK  406  A    between atoms: _996  and  _999
REMARK  407  A    between atoms: _999  and  _1000
REMARK  408  A    between atoms: _1005  and  _1006
REMARK  409  A    between atoms: _1008  and  _1010
REMARK  410  A    between atoms: _1010  and  _1011
REMARK  411  A    between atoms: _1014  and  _1016
REMARK  412  A    between atoms: _1016  and  _1017
REMARK  413  A    between atoms: _1019  and  _1021
REMARK  414  A    between atoms: _1021  and  _1022
REMARK  415  A    between atoms: _1021  and  _1024
REMARK  416  A    between atoms: _1024  and  _1025
REMARK  417  A    between atoms: _1025  and  _1026
REMARK  418  A    between atoms: _1029  and  _1031
REMARK  419  A    between atoms: _1031  and  _1032
REMARK  420  A    between atoms: _1031  and  _1034
REMARK  421  A    between atoms: _1034  and  _1035
REMARK                            x       y       z     vdW  Elec       q    Type
REMARK                         _______ _______ _______ _____ _____    ______ ____
ROOT
ATOM      1  O   HOH     1      15.109  41.764  38.643  0.00  0.00    +0.000 OA
ENDROOT
TORSDOF 0
REMARK  Name = ../refined-set-2016/2xef/2xef_pocket.pdb
REMARK  421 active torsions:
REMARK  status: ('A' for Active; 'I' for Inactive)
REMARK    1  A    between atoms: _1  and  _3
REMARK    2  A    between atoms: _3  and  _4
REMARK    3  A    between atoms: _7  and  _9
REMARK    4  A    between atoms: _9  and  _10
REMARK    5  A    between atoms: _9  and  _12
REMARK    6  A    between atoms: _12  and  _13
REMARK    7  A    between atoms: _19  and  _21
REMARK    8  A    between atoms: _21  and  _22
REMARK    9  A    between atoms: _21  and  _24
REMARK   10  A    between atoms: _24  and  _25
REMARK   11  A    between atoms: _30  and  _31
REMARK   12  A    between atoms: _33  and  _35
REMARK   13  A    between atoms: _35  and  _36
REMARK   14  A    between atoms: _38  and  _40
REMARK   15  A    between atoms: _40  and  _41
REMARK   16  A    between atoms: _40  and  _43
REMARK   17  A    between atoms: _43  and  _44
REMARK   18  A    between atoms: _44  and  _45
REMARK   19  A    between atoms: _45  and  _46
REMARK   20  A    between atoms: _46  and  _47
REMARK   21  A    between atoms: _51  and  _53
REMARK   22  A    between atoms: _53  and  _54
REMARK   23  A    between atoms: _53  and  _56
REMARK   24  A    between atoms: _59  and  _61
REMARK   25  A    between atoms: _61  and  _62
REMARK   26  A    between atoms: _61  and  _64
REMARK   27  A    between atoms: _64  and  _65
REMARK   28  A    between atoms: _71  and  _73
REMARK   29  A    between atoms: _73  and  _74
REMARK   30  A    between atoms: _73  and  _76
REMARK   31  A    between atoms: _76  and  _77
REMARK   32  A    between atoms: _77  and  _78
REMARK   33  A    between atoms: _78  and  _79
REMARK   34  A    between atoms: _88  and  _90
REMARK   35  A    between atoms: _90  and  _91
REMARK   36  A    between atoms: _93  and  _95
REMARK   37  A    between atoms: _95  and  _96
REMARK   38  A    between atoms: _95  and  _98
REMARK   39  A    between atoms: _98  and  _99
REMARK   40  A    between atoms: _99  and  _100
REMARK   41  A    between atoms: _100  and  _101
REMARK   42  A    between atoms: _101  and  _102
REMARK   43  A    between atoms: _106  and  _108
REMARK   44  A    between atoms: _108  and  _109
REMARK   45  A    between atoms: _108  and  _111
REMARK   46  A    between atoms: _111  and  _112
REMARK   47  A    between atoms: _117  and  _118
REMARK   48  A    between atoms: _120  and  _122
REMARK   49  A    between atoms: _122  and  _123
REMARK   50  A    between atoms: _122  and  _125
REMARK   51  A    between atoms: _125  and  _126
REMARK   52  A    between atoms: _126  and  _127
REMARK   53  A    between atoms: _132  and  _134
REMARK   54  A    between atoms: _134  and  _135
REMARK   55  A    between atoms: _134  and  _137
REMARK   56  A    between atoms: _137  and  _138
REMARK   57  A    between atoms: _138  and  _139
REMARK   58  A    between atoms: _139  and  _140
REMARK   59  A    between atoms: _149  and  _151
REMARK   60  A    between atoms: _151  and  _152
REMARK   61  A    between atoms: _154  and  _156
REMARK   62  A    between atoms: _156  and  _157
REMARK   63  A    between atoms: _156  and  _159
REMARK   64  A    between atoms: _159  and  _160
REMARK   65  A    between atoms: _165  and  _167
REMARK   66  A    between atoms: _167  and  _168
REMARK   67  A    between atoms: _167  and  _170
REMARK   68  A    between atoms: _170  and  _171
REMARK   69  A    between atoms: _174  and  _176
REMARK   70  A    between atoms: _176  and  _177
REMARK   71  A    between atoms: _176  and  _179
REMARK   72  A    between atoms: _179  and  _180
REMARK   73  A    between atoms: _183  and  _185
REMARK   74  A    between atoms: _185  and  _186
REMARK   75  A    between atoms: _185  and  _188
REMARK   76  A    between atoms: _188  and  _189
REMARK   77  A    between atoms: _194  and  _196
REMARK   78  A    between atoms: _196  and  _197
REMARK   79  A    between atoms: _196  and  _199
REMARK   80  A    between atoms: _199  and  _200
REMARK   81  A    between atoms: _203  and  _205
REMARK   82  A    between atoms: _205  and  _206
REMARK   83  A    between atoms: _205  and  _208
REMARK   84  A    between atoms: _208  and  _209
REMARK   85  A    between atoms: _214  and  _216
REMARK   86  A    between atoms: _216  and  _217
REMARK   87  A    between atoms: _219  and  _221
REMARK   88  A    between atoms: _221  and  _222
REMARK   89  A    between atoms: _224  and  _226
REMARK   90  A    between atoms: _226  and  _227
REMARK   91  A    between atoms: _226  and  _229
REMARK   92  A    between atoms: _229  and  _230
REMARK   93  A    between atoms: _234  and  ZN_1038
REMARK   94  A    between atoms: _235  and  _237
REMARK   95  A    between atoms: _237  and  _238
REMARK   96  A    between atoms: _237  and  _240
REMARK   97  A    between atoms: _240  and  _241
REMARK   98  A    between atoms: _244  and  _246
REMARK   99  A    between atoms: _246  and  _247
REMARK  100  A    between atoms: _246  and  _249
REMARK  101  A    between atoms: _249  and  _250
REMARK  102  A    between atoms: _260  and  _262
REMARK  103  A    between atoms: _262  and  _263
REMARK  104  A    between atoms: _262  and  _265
REMARK  105  A    between atoms: _265  and  _266
REMARK  106  A    between atoms: _269  and  _271
REMARK  107  A    between atoms: _271  and  _272
REMARK  108  A    between atoms: _271  and  _274
REMARK  109  A    between atoms: _274  and  _275
REMARK  110  A    between atoms: _279  and  _280
REMARK  111  A    between atoms: _285  and  _287
REMARK  112  A    between atoms: _287  and  _288
REMARK  113  A    between atoms: _291  and  _293
REMARK  114  A    between atoms: _293  and  _294
REMARK  115  A    between atoms: _293  and  _296
REMARK  116  A    between atoms: _296  and  _297
REMARK  117  A    between atoms: _297  and  _298
REMARK  118  A    between atoms: _301  and  _303
REMARK  119  A    between atoms: _303  and  _304
REMARK  120  A    between atoms: _303  and  _306
REMARK  121  A    between atoms: _306  and  _307
REMARK  122  A    between atoms: _307  and  _308
REMARK  123  A    between atoms: _308  and  _310
REMARK  124  A    between atoms: _310  and  ZN_1037
REMARK  125  A    between atoms: _311  and  _313
REMARK  126  A    between atoms: _313  and  _314
REMARK  127  A    between atoms: _313  and  _316
REMARK  128  A    between atoms: _316  and  _317
REMARK  129  A    between atoms: _323  and  _325
REMARK  130  A    between atoms: _325  and  _326
REMARK  131  A    between atoms: _328  and  _330
REMARK  132  A    between atoms: _330  and  _331
REMARK  133  A    between atoms: _330  and  _333
REMARK  134  A    between atoms: _333  and  _334
REMARK  135  A    between atoms: _337  and  _339
REMARK  136  A    between atoms: _339  and  _340
REMARK  137  A    between atoms: _339  and  _342
REMARK  138  A    between atoms: _342  and  _343
REMARK  139  A    between atoms: _346  and  _348
REMARK  140  A    between atoms: _348  and  _349
REMARK  141  A    between atoms: _348  and  _351
REMARK  142  A    between atoms: _351  and  _352
REMARK  143  A    between atoms: _357  and  _359
REMARK  144  A    between atoms: _359  and  _360
REMARK  145  A    between atoms: _359  and  _362
REMARK  146  A    between atoms: _362  and  _363
REMARK  147  A    between atoms: _363  and  _365
REMARK  148  A    between atoms: _365  and  ZN_1038
REMARK  149  A    between atoms: _366  and  _368
REMARK  150  A    between atoms: _368  and  _369
REMARK  151  A    between atoms: _368  and  _371
REMARK  152  A    between atoms: _371  and  _372
REMARK  153  A    between atoms: _374  and  _376
REMARK  154  A    between atoms: _376  and  _377
REMARK  155  A    between atoms: _376  and  _379
REMARK  156  A    between atoms: _379  and  _380
REMARK  157  A    between atoms: _382  and  _384
REMARK  158  A    between atoms: _384  and  _385
REMARK  159  A    between atoms: _384  and  _387
REMARK  160  A    between atoms: _387  and  _388
REMARK  161  A    between atoms: _391  and  _393
REMARK  162  A    between atoms: _393  and  _394
REMARK  163  A    between atoms: _393  and  _396
REMARK  164  A    between atoms: _396  and  _397
REMARK  165  A    between atoms: _397  and  _398
REMARK  166  A    between atoms: _401  and  _403
REMARK  167  A    between atoms: _403  and  _404
REMARK  168  A    between atoms: _403  and  _406
REMARK  169  A    between atoms: _406  and  _407
REMARK  170  A    between atoms: _412  and  _413
REMARK  171  A    between atoms: _415  and  _417
REMARK  172  A    between atoms: _417  and  _418
REMARK  173  A    between atoms: _417  and  _420
REMARK  174  A    between atoms: _420  and  _421
REMARK  175  A    between atoms: _424  and  _426
REMARK  176  A    between atoms: _426  and  _427
REMARK  177  A    between atoms: _426  and  _429
REMARK  178  A    between atoms: _429  and  _430
REMARK  179  A    between atoms: _433  and  _435
REMARK  180  A    between atoms: _435  and  _436
REMARK  181  A    between atoms: _435  and  _438
REMARK  182  A    between atoms: _438  and  _439
REMARK  183  A    between atoms: _439  and  _440
REMARK  184  A    between atoms: _440  and  _441
REMARK  185  A    between atoms: _450  and  _452
REMARK  186  A    between atoms: _452  and  _453
REMARK  187  A    between atoms: _452  and  _455
REMARK  188  A    between atoms: _458  and  _460
REMARK  189  A    between atoms: _460  and  _461
REMARK  190  A    between atoms: _460  and  _463
REMARK  191  A    between atoms: _463  and  _464
REMARK  192  A    between atoms: _467  and  _469
REMARK  193  A    between atoms: _469  and  _470
REMARK  194  A    between atoms: _469  and  _472
REMARK  195  A    between atoms: _474  and  _476
REMARK  196  A    between atoms: _476  and  _477
REMARK  197  A    between atoms: _476  and  _479
REMARK  198  A    between atoms: _479  and  _480
REMARK  199  A    between atoms: _490  and  _492
REMARK  200  A    between atoms: _492  and  _493
REMARK  201  A    between atoms: _492  and  _495
REMARK  202  A    between atoms: _495  and  _496
REMARK  203  A    between atoms: _496  and  _497
REMARK  204  A    between atoms: _497  and  _498
REMARK  205  A    between atoms: _498  and  _499
REMARK  206  A    between atoms: _503  and  _505
REMARK  207  A    between atoms: _505  and  _506
REMARK  208  A    between atoms: _505  and  _508
REMARK  209  A    between atoms: _508  and  _509
REMARK  210  A    between atoms: _512  and  _513
REMARK  211  A    between atoms: _519  and  _520
REMARK  212  A    between atoms: _525  and  _527
REMARK  213  A    between atoms: _527  and  _528
REMARK  214  A    between atoms: _527  and  _530
REMARK  215  A    between atoms: _530  and  _531
REMARK  216  A    between atoms: _531  and  _532
REMARK  217  A    between atoms: _535  and  _537
REMARK  218  A    between atoms: _537  and  _538
REMARK  219  A    between atoms: _537  and  _540
REMARK  220  A    between atoms: _540  and  _541
REMARK  221  A    between atoms: _541  and  _542
REMARK  222  A    between atoms: _542  and  _543
REMARK  223  A    between atoms: _552  and  _554
REMARK  224  A    between atoms: _554  and  _555
REMARK  225  A    between atoms: _554  and  _557
REMARK  226  A    between atoms: _557  and  _558
REMARK  227  A    between atoms: _561  and  _563
REMARK  228  A    between atoms: _563  and  _564
REMARK  229  A    between atoms: _563  and  _566
REMARK  230  A    between atoms: _566  and  _567
REMARK  231  A    between atoms: _569  and  _571
REMARK  232  A    between atoms: _571  and  _572
REMARK  233  A    between atoms: _571  and  _574
REMARK  234  A    between atoms: _574  and  _575
REMARK  235  A    between atoms: _575  and  _576
REMARK  236  A    between atoms: _576  and  _577
REMARK  237  A    between atoms: _577  and  _578
REMARK  238  A    between atoms: _582  and  _584
REMARK  239  A    between atoms: _584  and  _585
REMARK  240  A    between atoms: _584  and  _587
REMARK  241  A    between atoms: _587  and  _588
REMARK  242  A    between atoms: _591  and  _593
REMARK  243  A    between atoms: _593  and  _594
REMARK  244  A    between atoms: _596  and  _598
REMARK  245  A    between atoms: _598  and  _599
REMARK  246  A    between atoms: _598  and  _601
REMARK  247  A    between atoms: _601  and  _602
REMARK  248  A    between atoms: _604  and  _606
REMARK  249  A    between atoms: _606  and  _607
REMARK  250  A    between atoms: _609  and  _611
REMARK  251  A    between atoms: _611  and  _612
REMARK  252  A    between atoms: _611  and  _614
REMARK  253  A    between atoms: _614  and  _615
REMARK  254  A    between atoms: _620  and  _622
REMARK  255  A    between atoms: _622  and  _623
REMARK  256  A    between atoms: _622  and  _625
REMARK  257  A    between atoms: _625  and  _626
REMARK  258  A    between atoms: _629  and  _631
REMARK  259  A    between atoms: _631  and  _632
REMARK  260  A    between atoms: _631  and  _634
REMARK  261  A    between atoms: _634  and  _635
REMARK  262  A    between atoms: _641  and  _643
REMARK  263  A    between atoms: _643  and  _644
REMARK  264  A    between atoms: _643  and  _646
REMARK  265  A    between atoms: _646  and  _647
REMARK  266  A    between atoms: _647  and  _648
REMARK  267  A    between atoms: _651  and  _653
REMARK  268  A    between atoms: _653  and  _654
REMARK  269  A    between atoms: _653  and  _656
REMARK  270  A    between atoms: _656  and  _657
REMARK  271  A    between atoms: _657  and  _658
REMARK  272  A    between atoms: _663  and  _665
REMARK  273  A    between atoms: _665  and  _666
REMARK  274  A    between atoms: _665  and  _668
REMARK  275  A    between atoms: _668  and  _669
REMARK  276  A    between atoms: _669  and  _670
REMARK  277  A    between atoms: _670  and  _671
REMARK  278  A    between atoms: _680  and  _682
REMARK  279  A    between atoms: _682  and  _683
REMARK  280  A    between atoms: _682  and  _685
REMARK  281  A    between atoms: _685  and  _686
REMARK  282  A    between atoms: _686  and  _687
REMARK  283  A    between atoms: _687  and  _688
REMARK  284  A    between atoms: _697  and  _699
REMARK  285  A    between atoms: _699  and  _700
REMARK  286  A    between atoms: _699  and  _702
REMARK  287  A    between atoms: _702  and  _703
REMARK  288  A    between atoms: _708  and  _709
REMARK  289  A    between atoms: _711  and  _713
REMARK  290  A    between atoms: _713  and  _714
REMARK  291  A    between atoms: _713  and  _716
REMARK  292  A    between atoms: _716  and  _717
REMARK  293  A    between atoms: _720  and  _722
REMARK  294  A    between atoms: _722  and  _723
REMARK  295  A    between atoms: _722  and  _725
REMARK  296  A    between atoms: _725  and  _726
REMARK  297  A    between atoms: _726  and  _727
REMARK  298  A    between atoms: _727  and  _728
REMARK  299  A    between atoms: _728  and  _729
REMARK  300  A    between atoms: _733  and  _735
REMARK  301  A    between atoms: _735  and  _736
REMARK  302  A    between atoms: _735  and  _738
REMARK  303  A    between atoms: _738  and  _739
REMARK  304  A    between atoms: _744  and  _746
REMARK  305  A    between atoms: _746  and  _747
REMARK  306  A    between atoms: _746  and  _749
REMARK  307  A    between atoms: _749  and  _750
REMARK  308  A    between atoms: _760  and  _762
REMARK  309  A    between atoms: _762  and  _763
REMARK  310  A    between atoms: _762  and  _765
REMARK  311  A    between atoms: _765  and  _766
REMARK  312  A    between atoms: _766  and  _767
REMARK  313  A    between atoms: _770  and  _772
REMARK  314  A    between atoms: _772  and  _773
REMARK  315  A    between atoms: _772  and  _775
REMARK  316  A    between atoms: _775  and  _776
REMARK  317  A    between atoms: _779  and  _781
REMARK  318  A    between atoms: _781  and  _782
REMARK  319  A    between atoms: _781  and  _784
REMARK  320  A    between atoms: _784  and  _785
REMARK  321  A    between atoms: _790  and  _792
REMARK  322  A    between atoms: _792  and  _793
REMARK  323  A    between atoms: _792  and  _795
REMARK  324  A    between atoms: _795  and  _796
REMARK  325  A    between atoms: _802  and  _804
REMARK  326  A    between atoms: _804  and  _805
REMARK  327  A    between atoms: _804  and  _807
REMARK  328  A    between atoms: _807  and  _808
REMARK  329  A    between atoms: _810  and  _812
REMARK  330  A    between atoms: _812  and  _813
REMARK  331  A    between atoms: _815  and  _817
REMARK  332  A    between atoms: _817  and  _818
REMARK  333  A    between atoms: _817  and  _820
REMARK  334  A    between atoms: _820  and  _821
REMARK  335  A    between atoms: _826  and  _827
REMARK  336  A    between atoms: _829  and  _831
REMARK  337  A    between atoms: _831  and  _832
REMARK  338  A    between atoms: _831  and  _834
REMARK  339  A    between atoms: _834  and  _835
REMARK  340  A    between atoms: _840  and  _841
REMARK  341  A    between atoms: _843  and  _845
REMARK  342  A    between atoms: _845  and  _846
REMARK  343  A    between atoms: _845  and  _848
REMARK  344  A    between atoms: _848  and  _849
REMARK  345  A    between atoms: _853  and  ZN_1037
REMARK  346  A    between atoms: _854  and  _856
REMARK  347  A    between atoms: _856  and  _857
REMARK  348  A    between atoms: _856  and  _859
REMARK  349  A    between atoms: _859  and  _860
REMARK  350  A    between atoms: _860  and  _861
REMARK  351  A    between atoms: _864  and  _866
REMARK  352  A    between atoms: _866  and  _867
REMARK  353  A    between atoms: _866  and  _869
REMARK  354  A    between atoms: _869  and  _870
REMARK  355  A    between atoms: _870  and  _871
REMARK  356  A    between atoms: _871  and  _872
REMARK  357  A    between atoms: _881  and  _883
REMARK  358  A    between atoms: _883  and  _884
REMARK  359  A    between atoms: _883  and  _886
REMARK  360  A    between atoms: _886  and  _887
REMARK  361  A    between atoms: _887  and  _888
REMARK  362  A    between atoms: _888  and  _889
REMARK  363  A    between atoms: _889  and  _890
REMARK  364  A    between atoms: _894  and  _896
REMARK  365  A    between atoms: _896  and  _897
REMARK  366  A    between atoms: _896  and  _899
REMARK  367  A    between atoms: _899  and  _900
REMARK  368  A    between atoms: _905  and  _906
REMARK  369  A    between atoms: _908  and  _910
REMARK  370  A    between atoms: _910  and  _911
REMARK  371  A    between atoms: _910  and  _913
REMARK  372  A    between atoms: _913  and  _914
REMARK  373  A    between atoms: _914  and  _915
REMARK  374  A    between atoms: _915  and  _916
REMARK  375  A    between atoms: _916  and  _917
REMARK  376  A    between atoms: _921  and  _923
REMARK  377  A    between atoms: _923  and  _924
REMARK  378  A    between atoms: _923  and  _926
REMARK  379  A    between atoms: _926  and  _927
REMARK  380  A    between atoms: _932  and  _933
REMARK  381  A    between atoms: _935  and  _937
REMARK  382  A    between atoms: _937  and  _938
REMARK  383  A    between atoms: _937  and  _940
REMARK  384  A    between atoms: _940  and  _941
REMARK  385  A    between atoms: _946  and  _947
REMARK  386  A    between atoms: _949  and  _951
REMARK  387  A    between atoms: _951  and  _952
REMARK  388  A    between atoms: _956  and  _957
REMARK  389  A    between atoms: _962  and  _964
REMARK  390  A    between atoms: _964  and  _965
REMARK  391  A    between atoms: _964  and  _967
REMARK  392  A    between atoms: _967  and  _968
REMARK  393  A    between atoms: _970  and  _972
REMARK  394  A    between atoms: _972  and  _973
REMARK  395  A    between atoms: _972  and  _975
REMARK  396  A    between atoms: _975  and  _976
REMARK  397  A    between atoms: _981  and  _983
REMARK  398  A    between atoms: _983  and  _984
REMARK  399  A    between atoms: _983  and  _986
REMARK  400  A    between atoms: _986  and  _987
REMARK  401  A    between atoms: _987  and  _988
REMARK  402  A    between atoms: _988  and  _989
REMARK  403  A    between atoms: _989  and  _990
REMARK  404  A    between atoms: _994  and  _996
REMARK  405  A    between atoms: _996  and  _997
REMARK  406  A    between atoms: _996  and  _999
REMARK  407  A    between atoms: _999  and  _1000
REMARK  408  A    between atoms: _1005  and  _1006
REMARK  409  A    between atoms: _1008  and  _1010
REMARK  410  A    between atoms: _1010  and  _1011
REMARK  411  A    between atoms: _1014  and  _1016
REMARK  412  A    between atoms: _1016  and  _1017
REMARK  413  A    between atoms: _1019  and  _1021
REMARK  414  A    between atoms: _1021  and  _1022
REMARK  415  A    between atoms: _1021  and  _1024
REMARK  416  A    between atoms: _1024  and  _1025
REMARK  417  A    between atoms: _1025  and  _1026
REMARK  418  A    between atoms: _1029  and  _1031
REMARK  419  A    between atoms: _1031  and  _1032
REMARK  420  A    between atoms: _1031  and  _1034
REMARK  421  A    between atoms: _1034  and  _1035
REMARK                            x       y       z     vdW  Elec       q    Type
REMARK                         _______ _______ _______ _____ _____    ______ ____
ROOT
ATOM      1  O   HOH     1      11.693  47.585  37.334  0.00  0.00    +0.000 OA
ENDROOT
TORSDOF 0
REMARK  Name = ../refined-set-2016/2xef/2xef_pocket.pdb
REMARK  421 active torsions:
REMARK  status: ('A' for Active; 'I' for Inactive)
REMARK    1  A    between atoms: _1  and  _3
REMARK    2  A    between atoms: _3  and  _4
REMARK    3  A    between atoms: _7  and  _9
REMARK    4  A    between atoms: _9  and  _10
REMARK    5  A    between atoms: _9  and  _12
REMARK    6  A    between atoms: _12  and  _13
REMARK    7  A    between atoms: _19  and  _21
REMARK    8  A    between atoms: _21  and  _22
REMARK    9  A    between atoms: _21  and  _24
REMARK   10  A    between atoms: _24  and  _25
REMARK   11  A    between atoms: _30  and  _31
REMARK   12  A    between atoms: _33  and  _35
REMARK   13  A    between atoms: _35  and  _36
REMARK   14  A    between atoms: _38  and  _40
REMARK   15  A    between atoms: _40  and  _41
REMARK   16  A    between atoms: _40  and  _43
REMARK   17  A    between atoms: _43  and  _44
REMARK   18  A    between atoms: _44  and  _45
REMARK   19  A    between atoms: _45  and  _46
REMARK   20  A    between atoms: _46  and  _47
REMARK   21  A    between atoms: _51  and  _53
REMARK   22  A    between atoms: _53  and  _54
REMARK   23  A    between atoms: _53  and  _56
REMARK   24  A    between atoms: _59  and  _61
REMARK   25  A    between atoms: _61  and  _62
REMARK   26  A    between atoms: _61  and  _64
REMARK   27  A    between atoms: _64  and  _65
REMARK   28  A    between atoms: _71  and  _73
REMARK   29  A    between atoms: _73  and  _74
REMARK   30  A    between atoms: _73  and  _76
REMARK   31  A    between atoms: _76  and  _77
REMARK   32  A    between atoms: _77  and  _78
REMARK   33  A    between atoms: _78  and  _79
REMARK   34  A    between atoms: _88  and  _90
REMARK   35  A    between atoms: _90  and  _91
REMARK   36  A    between atoms: _93  and  _95
REMARK   37  A    between atoms: _95  and  _96
REMARK   38  A    between atoms: _95  and  _98
REMARK   39  A    between atoms: _98  and  _99
REMARK   40  A    between atoms: _99  and  _100
REMARK   41  A    between atoms: _100  and  _101
REMARK   42  A    between atoms: _101  and  _102
REMARK   43  A    between atoms: _106  and  _108
REMARK   44  A    between atoms: _108  and  _109
REMARK   45  A    between atoms: _108  and  _111
REMARK   46  A    between atoms: _111  and  _112
REMARK   47  A    between atoms: _117  and  _118
REMARK   48  A    between atoms: _120  and  _122
REMARK   49  A    between atoms: _122  and  _123
REMARK   50  A    between atoms: _122  and  _125
REMARK   51  A    between atoms: _125  and  _126
REMARK   52  A    between atoms: _126  and  _127
REMARK   53  A    between atoms: _132  and  _134
REMARK   54  A    between atoms: _134  and  _135
REMARK   55  A    between atoms: _134  and  _137
REMARK   56  A    between atoms: _137  and  _138
REMARK   57  A    between atoms: _138  and  _139
REMARK   58  A    between atoms: _139  and  _140
REMARK   59  A    between atoms: _149  and  _151
REMARK   60  A    between atoms: _151  and  _152
REMARK   61  A    between atoms: _154  and  _156
REMARK   62  A    between atoms: _156  and  _157
REMARK   63  A    between atoms: _156  and  _159
REMARK   64  A    between atoms: _159  and  _160
REMARK   65  A    between atoms: _165  and  _167
REMARK   66  A    between atoms: _167  and  _168
REMARK   67  A    between atoms: _167  and  _170
REMARK   68  A    between atoms: _170  and  _171
REMARK   69  A    between atoms: _174  and  _176
REMARK   70  A    between atoms: _176  and  _177
REMARK   71  A    between atoms: _176  and  _179
REMARK   72  A    between atoms: _179  and  _180
REMARK   73  A    between atoms: _183  and  _185
REMARK   74  A    between atoms: _185  and  _186
REMARK   75  A    between atoms: _185  and  _188
REMARK   76  A    between atoms: _188  and  _189
REMARK   77  A    between atoms: _194  and  _196
REMARK   78  A    between atoms: _196  and  _197
REMARK   79  A    between atoms: _196  and  _199
REMARK   80  A    between atoms: _199  and  _200
REMARK   81  A    between atoms: _203  and  _205
REMARK   82  A    between atoms: _205  and  _206
REMARK   83  A    between atoms: _205  and  _208
REMARK   84  A    between atoms: _208  and  _209
REMARK   85  A    between atoms: _214  and  _216
REMARK   86  A    between atoms: _216  and  _217
REMARK   87  A    between atoms: _219  and  _221
REMARK   88  A    between atoms: _221  and  _222
REMARK   89  A    between atoms: _224  and  _226
REMARK   90  A    between atoms: _226  and  _227
REMARK   91  A    between atoms: _226  and  _229
REMARK   92  A    between atoms: _229  and  _230
REMARK   93  A    between atoms: _234  and  ZN_1038
REMARK   94  A    between atoms: _235  and  _237
REMARK   95  A    between atoms: _237  and  _238
REMARK   96  A    between atoms: _237  and  _240
REMARK   97  A    between atoms: _240  and  _241
REMARK   98  A    between atoms: _244  and  _246
REMARK   99  A    between atoms: _246  and  _247
REMARK  100  A    between atoms: _246  and  _249
REMARK  101  A    between atoms: _249  and  _250
REMARK  102  A    between atoms: _260  and  _262
REMARK  103  A    between atoms: _262  and  _263
REMARK  104  A    between atoms: _262  and  _265
REMARK  105  A    between atoms: _265  and  _266
REMARK  106  A    between atoms: _269  and  _271
REMARK  107  A    between atoms: _271  and  _272
REMARK  108  A    between atoms: _271  and  _274
REMARK  109  A    between atoms: _274  and  _275
REMARK  110  A    between atoms: _279  and  _280
REMARK  111  A    between atoms: _285  and  _287
REMARK  112  A    between atoms: _287  and  _288
REMARK  113  A    between atoms: _291  and  _293
REMARK  114  A    between atoms: _293  and  _294
REMARK  115  A    between atoms: _293  and  _296
REMARK  116  A    between atoms: _296  and  _297
REMARK  117  A    between atoms: _297  and  _298
REMARK  118  A    between atoms: _301  and  _303
REMARK  119  A    between atoms: _303  and  _304
REMARK  120  A    between atoms: _303  and  _306
REMARK  121  A    between atoms: _306  and  _307
REMARK  122  A    between atoms: _307  and  _308
REMARK  123  A    between atoms: _308  and  _310
REMARK  124  A    between atoms: _310  and  ZN_1037
REMARK  125  A    between atoms: _311  and  _313
REMARK  126  A    between atoms: _313  and  _314
REMARK  127  A    between atoms: _313  and  _316
REMARK  128  A    between atoms: _316  and  _317
REMARK  129  A    between atoms: _323  and  _325
REMARK  130  A    between atoms: _325  and  _326
REMARK  131  A    between atoms: _328  and  _330
REMARK  132  A    between atoms: _330  and  _331
REMARK  133  A    between atoms: _330  and  _333
REMARK  134  A    between atoms: _333  and  _334
REMARK  135  A    between atoms: _337  and  _339
REMARK  136  A    between atoms: _339  and  _340
REMARK  137  A    between atoms: _339  and  _342
REMARK  138  A    between atoms: _342  and  _343
REMARK  139  A    between atoms: _346  and  _348
REMARK  140  A    between atoms: _348  and  _349
REMARK  141  A    between atoms: _348  and  _351
REMARK  142  A    between atoms: _351  and  _352
REMARK  143  A    between atoms: _357  and  _359
REMARK  144  A    between atoms: _359  and  _360
REMARK  145  A    between atoms: _359  and  _362
REMARK  146  A    between atoms: _362  and  _363
REMARK  147  A    between atoms: _363  and  _365
REMARK  148  A    between atoms: _365  and  ZN_1038
REMARK  149  A    between atoms: _366  and  _368
REMARK  150  A    between atoms: _368  and  _369
REMARK  151  A    between atoms: _368  and  _371
REMARK  152  A    between atoms: _371  and  _372
REMARK  153  A    between atoms: _374  and  _376
REMARK  154  A    between atoms: _376  and  _377
REMARK  155  A    between atoms: _376  and  _379
REMARK  156  A    between atoms: _379  and  _380
REMARK  157  A    between atoms: _382  and  _384
REMARK  158  A    between atoms: _384  and  _385
REMARK  159  A    between atoms: _384  and  _387
REMARK  160  A    between atoms: _387  and  _388
REMARK  161  A    between atoms: _391  and  _393
REMARK  162  A    between atoms: _393  and  _394
REMARK  163  A    between atoms: _393  and  _396
REMARK  164  A    between atoms: _396  and  _397
REMARK  165  A    between atoms: _397  and  _398
REMARK  166  A    between atoms: _401  and  _403
REMARK  167  A    between atoms: _403  and  _404
REMARK  168  A    between atoms: _403  and  _406
REMARK  169  A    between atoms: _406  and  _407
REMARK  170  A    between atoms: _412  and  _413
REMARK  171  A    between atoms: _415  and  _417
REMARK  172  A    between atoms: _417  and  _418
REMARK  173  A    between atoms: _417  and  _420
REMARK  174  A    between atoms: _420  and  _421
REMARK  175  A    between atoms: _424  and  _426
REMARK  176  A    between atoms: _426  and  _427
REMARK  177  A    between atoms: _426  and  _429
REMARK  178  A    between atoms: _429  and  _430
REMARK  179  A    between atoms: _433  and  _435
REMARK  180  A    between atoms: _435  and  _436
REMARK  181  A    between atoms: _435  and  _438
REMARK  182  A    between atoms: _438  and  _439
REMARK  183  A    between atoms: _439  and  _440
REMARK  184  A    between atoms: _440  and  _441
REMARK  185  A    between atoms: _450  and  _452
REMARK  186  A    between atoms: _452  and  _453
REMARK  187  A    between atoms: _452  and  _455
REMARK  188  A    between atoms: _458  and  _460
REMARK  189  A    between atoms: _460  and  _461
REMARK  190  A    between atoms: _460  and  _463
REMARK  191  A    between atoms: _463  and  _464
REMARK  192  A    between atoms: _467  and  _469
REMARK  193  A    between atoms: _469  and  _470
REMARK  194  A    between atoms: _469  and  _472
REMARK  195  A    between atoms: _474  and  _476
REMARK  196  A    between atoms: _476  and  _477
REMARK  197  A    between atoms: _476  and  _479
REMARK  198  A    between atoms: _479  and  _480
REMARK  199  A    between atoms: _490  and  _492
REMARK  200  A    between atoms: _492  and  _493
REMARK  201  A    between atoms: _492  and  _495
REMARK  202  A    between atoms: _495  and  _496
REMARK  203  A    between atoms: _496  and  _497
REMARK  204  A    between atoms: _497  and  _498
REMARK  205  A    between atoms: _498  and  _499
REMARK  206  A    between atoms: _503  and  _505
REMARK  207  A    between atoms: _505  and  _506
REMARK  208  A    between atoms: _505  and  _508
REMARK  209  A    between atoms: _508  and  _509
REMARK  210  A    between atoms: _512  and  _513
REMARK  211  A    between atoms: _519  and  _520
REMARK  212  A    between atoms: _525  and  _527
REMARK  213  A    between atoms: _527  and  _528
REMARK  214  A    between atoms: _527  and  _530
REMARK  215  A    between atoms: _530  and  _531
REMARK  216  A    between atoms: _531  and  _532
REMARK  217  A    between atoms: _535  and  _537
REMARK  218  A    between atoms: _537  and  _538
REMARK  219  A    between atoms: _537  and  _540
REMARK  220  A    between atoms: _540  and  _541
REMARK  221  A    between atoms: _541  and  _542
REMARK  222  A    between atoms: _542  and  _543
REMARK  223  A    between atoms: _552  and  _554
REMARK  224  A    between atoms: _554  and  _555
REMARK  225  A    between atoms: _554  and  _557
REMARK  226  A    between atoms: _557  and  _558
REMARK  227  A    between atoms: _561  and  _563
REMARK  228  A    between atoms: _563  and  _564
REMARK  229  A    between atoms: _563  and  _566
REMARK  230  A    between atoms: _566  and  _567
REMARK  231  A    between atoms: _569  and  _571
REMARK  232  A    between atoms: _571  and  _572
REMARK  233  A    between atoms: _571  and  _574
REMARK  234  A    between atoms: _574  and  _575
REMARK  235  A    between atoms: _575  and  _576
REMARK  236  A    between atoms: _576  and  _577
REMARK  237  A    between atoms: _577  and  _578
REMARK  238  A    between atoms: _582  and  _584
REMARK  239  A    between atoms: _584  and  _585
REMARK  240  A    between atoms: _584  and  _587
REMARK  241  A    between atoms: _587  and  _588
REMARK  242  A    between atoms: _591  and  _593
REMARK  243  A    between atoms: _593  and  _594
REMARK  244  A    between atoms: _596  and  _598
REMARK  245  A    between atoms: _598  and  _599
REMARK  246  A    between atoms: _598  and  _601
REMARK  247  A    between atoms: _601  and  _602
REMARK  248  A    between atoms: _604  and  _606
REMARK  249  A    between atoms: _606  and  _607
REMARK  250  A    between atoms: _609  and  _611
REMARK  251  A    between atoms: _611  and  _612
REMARK  252  A    between atoms: _611  and  _614
REMARK  253  A    between atoms: _614  and  _615
REMARK  254  A    between atoms: _620  and  _622
REMARK  255  A    between atoms: _622  and  _623
REMARK  256  A    between atoms: _622  and  _625
REMARK  257  A    between atoms: _625  and  _626
REMARK  258  A    between atoms: _629  and  _631
REMARK  259  A    between atoms: _631  and  _632
REMARK  260  A    between atoms: _631  and  _634
REMARK  261  A    between atoms: _634  and  _635
REMARK  262  A    between atoms: _641  and  _643
REMARK  263  A    between atoms: _643  and  _644
REMARK  264  A    between atoms: _643  and  _646
REMARK  265  A    between atoms: _646  and  _647
REMARK  266  A    between atoms: _647  and  _648
REMARK  267  A    between atoms: _651  and  _653
REMARK  268  A    between atoms: _653  and  _654
REMARK  269  A    between atoms: _653  and  _656
REMARK  270  A    between atoms: _656  and  _657
REMARK  271  A    between atoms: _657  and  _658
REMARK  272  A    between atoms: _663  and  _665
REMARK  273  A    between atoms: _665  and  _666
REMARK  274  A    between atoms: _665  and  _668
REMARK  275  A    between atoms: _668  and  _669
REMARK  276  A    between atoms: _669  and  _670
REMARK  277  A    between atoms: _670  and  _671
REMARK  278  A    between atoms: _680  and  _682
REMARK  279  A    between atoms: _682  and  _683
REMARK  280  A    between atoms: _682  and  _685
REMARK  281  A    between atoms: _685  and  _686
REMARK  282  A    between atoms: _686  and  _687
REMARK  283  A    between atoms: _687  and  _688
REMARK  284  A    between atoms: _697  and  _699
REMARK  285  A    between atoms: _699  and  _700
REMARK  286  A    between atoms: _699  and  _702
REMARK  287  A    between atoms: _702  and  _703
REMARK  288  A    between atoms: _708  and  _709
REMARK  289  A    between atoms: _711  and  _713
REMARK  290  A    between atoms: _713  and  _714
REMARK  291  A    between atoms: _713  and  _716
REMARK  292  A    between atoms: _716  and  _717
REMARK  293  A    between atoms: _720  and  _722
REMARK  294  A    between atoms: _722  and  _723
REMARK  295  A    between atoms: _722  and  _725
REMARK  296  A    between atoms: _725  and  _726
REMARK  297  A    between atoms: _726  and  _727
REMARK  298  A    between atoms: _727  and  _728
REMARK  299  A    between atoms: _728  and  _729
REMARK  300  A    between atoms: _733  and  _735
REMARK  301  A    between atoms: _735  and  _736
REMARK  302  A    between atoms: _735  and  _738
REMARK  303  A    between atoms: _738  and  _739
REMARK  304  A    between atoms: _744  and  _746
REMARK  305  A    between atoms: _746  and  _747
REMARK  306  A    between atoms: _746  and  _749
REMARK  307  A    between atoms: _749  and  _750
REMARK  308  A    between atoms: _760  and  _762
REMARK  309  A    between atoms: _762  and  _763
REMARK  310  A    between atoms: _762  and  _765
REMARK  311  A    between atoms: _765  and  _766
REMARK  312  A    between atoms: _766  and  _767
REMARK  313  A    between atoms: _770  and  _772
REMARK  314  A    between atoms: _772  and  _773
REMARK  315  A    between atoms: _772  and  _775
REMARK  316  A    between atoms: _775  and  _776
REMARK  317  A    between atoms: _779  and  _781
REMARK  318  A    between atoms: _781  and  _782
REMARK  319  A    between atoms: _781  and  _784
REMARK  320  A    between atoms: _784  and  _785
REMARK  321  A    between atoms: _790  and  _792
REMARK  322  A    between atoms: _792  and  _793
REMARK  323  A    between atoms: _792  and  _795
REMARK  324  A    between atoms: _795  and  _796
REMARK  325  A    between atoms: _802  and  _804
REMARK  326  A    between atoms: _804  and  _805
REMARK  327  A    between atoms: _804  and  _807
REMARK  328  A    between atoms: _807  and  _808
REMARK  329  A    between atoms: _810  and  _812
REMARK  330  A    between atoms: _812  and  _813
REMARK  331  A    between atoms: _815  and  _817
REMARK  332  A    between atoms: _817  and  _818
REMARK  333  A    between atoms: _817  and  _820
REMARK  334  A    between atoms: _820  and  _821
REMARK  335  A    between atoms: _826  and  _827
REMARK  336  A    between atoms: _829  and  _831
REMARK  337  A    between atoms: _831  and  _832
REMARK  338  A    between atoms: _831  and  _834
REMARK  339  A    between atoms: _834  and  _835
REMARK  340  A    between atoms: _840  and  _841
REMARK  341  A    between atoms: _843  and  _845
REMARK  342  A    between atoms: _845  and  _846
REMARK  343  A    between atoms: _845  and  _848
REMARK  344  A    between atoms: _848  and  _849
REMARK  345  A    between atoms: _853  and  ZN_1037
REMARK  346  A    between atoms: _854  and  _856
REMARK  347  A    between atoms: _856  and  _857
REMARK  348  A    between atoms: _856  and  _859
REMARK  349  A    between atoms: _859  and  _860
REMARK  350  A    between atoms: _860  and  _861
REMARK  351  A    between atoms: _864  and  _866
REMARK  352  A    between atoms: _866  and  _867
REMARK  353  A    between atoms: _866  and  _869
REMARK  354  A    between atoms: _869  and  _870
REMARK  355  A    between atoms: _870  and  _871
REMARK  356  A    between atoms: _871  and  _872
REMARK  357  A    between atoms: _881  and  _883
REMARK  358  A    between atoms: _883  and  _884
REMARK  359  A    between atoms: _883  and  _886
REMARK  360  A    between atoms: _886  and  _887
REMARK  361  A    between atoms: _887  and  _888
REMARK  362  A    between atoms: _888  and  _889
REMARK  363  A    between atoms: _889  and  _890
REMARK  364  A    between atoms: _894  and  _896
REMARK  365  A    between atoms: _896  and  _897
REMARK  366  A    between atoms: _896  and  _899
REMARK  367  A    between atoms: _899  and  _900
REMARK  368  A    between atoms: _905  and  _906
REMARK  369  A    between atoms: _908  and  _910
REMARK  370  A    between atoms: _910  and  _911
REMARK  371  A    between atoms: _910  and  _913
REMARK  372  A    between atoms: _913  and  _914
REMARK  373  A    between atoms: _914  and  _915
REMARK  374  A    between atoms: _915  and  _916
REMARK  375  A    between atoms: _916  and  _917
REMARK  376  A    between atoms: _921  and  _923
REMARK  377  A    between atoms: _923  and  _924
REMARK  378  A    between atoms: _923  and  _926
REMARK  379  A    between atoms: _926  and  _927
REMARK  380  A    between atoms: _932  and  _933
REMARK  381  A    between atoms: _935  and  _937
REMARK  382  A    between atoms: _937  and  _938
REMARK  383  A    between atoms: _937  and  _940
REMARK  384  A    between atoms: _940  and  _941
REMARK  385  A    between atoms: _946  and  _947
REMARK  386  A    between atoms: _949  and  _951
REMARK  387  A    between atoms: _951  and  _952
REMARK  388  A    between atoms: _956  and  _957
REMARK  389  A    between atoms: _962  and  _964
REMARK  390  A    between atoms: _964  and  _965
REMARK  391  A    between atoms: _964  and  _967
REMARK  392  A    between atoms: _967  and  _968
REMARK  393  A    between atoms: _970  and  _972
REMARK  394  A    between atoms: _972  and  _973
REMARK  395  A    between atoms: _972  and  _975
REMARK  396  A    between atoms: _975  and  _976
REMARK  397  A    between atoms: _981  and  _983
REMARK  398  A    between atoms: _983  and  _984
REMARK  399  A    between atoms: _983  and  _986
REMARK  400  A    between atoms: _986  and  _987
REMARK  401  A    between atoms: _987  and  _988
REMARK  402  A    between atoms: _988  and  _989
REMARK  403  A    between atoms: _989  and  _990
REMARK  404  A    between atoms: _994  and  _996
REMARK  405  A    between atoms: _996  and  _997
REMARK  406  A    between atoms: _996  and  _999
REMARK  407  A    between atoms: _999  and  _1000
REMARK  408  A    between atoms: _1005  and  _1006
REMARK  409  A    between atoms: _1008  and  _1010
REMARK  410  A    between atoms: _1010  and  _1011
REMARK  411  A    between atoms: _1014  and  _1016
REMARK  412  A    between atoms: _1016  and  _1017
REMARK  413  A    between atoms: _1019  and  _1021
REMARK  414  A    between atoms: _1021  and  _1022
REMARK  415  A    between atoms: _1021  and  _1024
REMARK  416  A    between atoms: _1024  and  _1025
REMARK  417  A    between atoms: _1025  and  _1026
REMARK  418  A    between atoms: _1029  and  _1031
REMARK  419  A    between atoms: _1031  and  _1032
REMARK  420  A    between atoms: _1031  and  _1034
REMARK  421  A    between atoms: _1034  and  _1035
REMARK                            x       y       z     vdW  Elec       q    Type
REMARK                         _______ _______ _______ _____ _____    ______ ____
ROOT
ATOM      1  O   HOH     1      34.542  50.044  50.371  0.00  0.00    +0.000 OA
ENDROOT
TORSDOF 0
