REMARK  Name = ../refined-set-2016/1q1g/1q1g_pocket.pdb
REMARK  211 active torsions:
REMARK  status: ('A' for Active; 'I' for Inactive)
REMARK    1  A    between atoms: _1  and  _3
REMARK    2  A    between atoms: _3  and  _4
REMARK    3  A    between atoms: _3  and  _6
REMARK    4  A    between atoms: _9  and  _11
REMARK    5  A    between atoms: _11  and  _12
REMARK    6  A    between atoms: _14  and  _16
REMARK    7  A    between atoms: _16  and  _17
REMARK    8  A    between atoms: _16  and  _19
REMARK    9  A    between atoms: _19  and  _20
REMARK   10  A    between atoms: _23  and  _25
REMARK   11  A    between atoms: _25  and  _26
REMARK   12  A    between atoms: _25  and  _28
REMARK   13  A    between atoms: _28  and  _29
REMARK   14  A    between atoms: _34  and  _36
REMARK   15  A    between atoms: _36  and  _37
REMARK   16  A    between atoms: _39  and  _41
REMARK   17  A    between atoms: _41  and  _42
REMARK   18  A    between atoms: _41  and  _44
REMARK   19  A    between atoms: _47  and  _49
REMARK   20  A    between atoms: _49  and  _50
REMARK   21  A    between atoms: _52  and  _54
REMARK   22  A    between atoms: _54  and  _55
REMARK   23  A    between atoms: _54  and  _57
REMARK   24  A    between atoms: _57  and  _58
REMARK   25  A    between atoms: _60  and  _62
REMARK   26  A    between atoms: _62  and  _63
REMARK   27  A    between atoms: _62  and  _65
REMARK   28  A    between atoms: _65  and  _66
REMARK   29  A    between atoms: _66  and  _67
REMARK   30  A    between atoms: _67  and  _68
REMARK   31  A    between atoms: _77  and  _79
REMARK   32  A    between atoms: _79  and  _80
REMARK   33  A    between atoms: _82  and  _84
REMARK   34  A    between atoms: _84  and  _85
REMARK   35  A    between atoms: _84  and  _87
REMARK   36  A    between atoms: _87  and  _88
REMARK   37  A    between atoms: _90  and  _92
REMARK   38  A    between atoms: _92  and  _93
REMARK   39  A    between atoms: _92  and  _95
REMARK   40  A    between atoms: _97  and  _99
REMARK   41  A    between atoms: _99  and  _100
REMARK   42  A    between atoms: _102  and  _104
REMARK   43  A    between atoms: _104  and  _105
REMARK   44  A    between atoms: _104  and  _107
REMARK   45  A    between atoms: _107  and  _108
REMARK   46  A    between atoms: _110  and  _112
REMARK   47  A    between atoms: _112  and  _113
REMARK   48  A    between atoms: _112  and  _115
REMARK   49  A    between atoms: _115  and  _116
REMARK   50  A    between atoms: _119  and  _121
REMARK   51  A    between atoms: _121  and  _122
REMARK   52  A    between atoms: _121  and  _124
REMARK   53  A    between atoms: _124  and  _125
REMARK   54  A    between atoms: _127  and  _129
REMARK   55  A    between atoms: _129  and  _130
REMARK   56  A    between atoms: _129  and  _132
REMARK   57  A    between atoms: _135  and  _137
REMARK   58  A    between atoms: _137  and  _138
REMARK   59  A    between atoms: _137  and  _140
REMARK   60  A    between atoms: _140  and  _141
REMARK   61  A    between atoms: _143  and  _145
REMARK   62  A    between atoms: _145  and  _146
REMARK   63  A    between atoms: _145  and  _148
REMARK   64  A    between atoms: _148  and  _149
REMARK   65  A    between atoms: _151  and  _153
REMARK   66  A    between atoms: _153  and  _154
REMARK   67  A    between atoms: _153  and  _156
REMARK   68  A    between atoms: _156  and  _157
REMARK   69  A    between atoms: _160  and  _162
REMARK   70  A    between atoms: _162  and  _163
REMARK   71  A    between atoms: _162  and  _165
REMARK   72  A    between atoms: _165  and  _166
REMARK   73  A    between atoms: _166  and  _167
REMARK   74  A    between atoms: _169  and  _171
REMARK   75  A    between atoms: _171  and  _172
REMARK   76  A    between atoms: _171  and  _174
REMARK   77  A    between atoms: _174  and  _175
REMARK   78  A    between atoms: _180  and  _181
REMARK   79  A    between atoms: _183  and  _185
REMARK   80  A    between atoms: _185  and  _186
REMARK   81  A    between atoms: _185  and  _188
REMARK   82  A    between atoms: _188  and  _189
REMARK   83  A    between atoms: _194  and  _195
REMARK   84  A    between atoms: _197  and  _199
REMARK   85  A    between atoms: _199  and  _200
REMARK   86  A    between atoms: _199  and  _202
REMARK   87  A    between atoms: _202  and  _203
REMARK   88  A    between atoms: _206  and  _208
REMARK   89  A    between atoms: _208  and  _209
REMARK   90  A    between atoms: _208  and  _211
REMARK   91  A    between atoms: _214  and  _216
REMARK   92  A    between atoms: _216  and  _217
REMARK   93  A    between atoms: _216  and  _219
REMARK   94  A    between atoms: _222  and  _224
REMARK   95  A    between atoms: _224  and  _225
REMARK   96  A    between atoms: _224  and  _227
REMARK   97  A    between atoms: _227  and  _228
REMARK   98  A    between atoms: _228  and  _229
REMARK   99  A    between atoms: _232  and  _234
REMARK  100  A    between atoms: _234  and  _235
REMARK  101  A    between atoms: _234  and  _237
REMARK  102  A    between atoms: _237  and  _238
REMARK  103  A    between atoms: _238  and  _239
REMARK  104  A    between atoms: _241  and  _243
REMARK  105  A    between atoms: _243  and  _244
REMARK  106  A    between atoms: _243  and  _246
REMARK  107  A    between atoms: _246  and  _247
REMARK  108  A    between atoms: _247  and  _248
REMARK  109  A    between atoms: _251  and  _253
REMARK  110  A    between atoms: _253  and  _254
REMARK  111  A    between atoms: _253  and  _256
REMARK  112  A    between atoms: _256  and  _257
REMARK  113  A    between atoms: _260  and  _262
REMARK  114  A    between atoms: _262  and  _263
REMARK  115  A    between atoms: _262  and  _265
REMARK  116  A    between atoms: _265  and  _266
REMARK  117  A    between atoms: _269  and  _271
REMARK  118  A    between atoms: _271  and  _272
REMARK  119  A    between atoms: _271  and  _274
REMARK  120  A    between atoms: _274  and  _275
REMARK  121  A    between atoms: _278  and  _280
REMARK  122  A    between atoms: _280  and  _281
REMARK  123  A    between atoms: _280  and  _283
REMARK  124  A    between atoms: _286  and  _288
REMARK  125  A    between atoms: _288  and  _289
REMARK  126  A    between atoms: _288  and  _291
REMARK  127  A    between atoms: _291  and  _292
REMARK  128  A    between atoms: _295  and  _297
REMARK  129  A    between atoms: _297  and  _298
REMARK  130  A    between atoms: _300  and  _302
REMARK  131  A    between atoms: _302  and  _303
REMARK  132  A    between atoms: _302  and  _305
REMARK  133  A    between atoms: _308  and  _309
REMARK  134  A    between atoms: _314  and  _316
REMARK  135  A    between atoms: _316  and  _317
REMARK  136  A    between atoms: _316  and  _319
REMARK  137  A    between atoms: _319  and  _320
REMARK  138  A    between atoms: _326  and  _328
REMARK  139  A    between atoms: _328  and  _329
REMARK  140  A    between atoms: _328  and  _331
REMARK  141  A    between atoms: _331  and  _332
REMARK  142  A    between atoms: _332  and  _333
REMARK  143  A    between atoms: _333  and  _334
REMARK  144  A    between atoms: _334  and  _335
REMARK  145  A    between atoms: _339  and  _341
REMARK  146  A    between atoms: _341  and  _342
REMARK  147  A    between atoms: _341  and  _344
REMARK  148  A    between atoms: _344  and  _345
REMARK  149  A    between atoms: _355  and  _357
REMARK  150  A    between atoms: _357  and  _358
REMARK  151  A    between atoms: _357  and  _360
REMARK  152  A    between atoms: _360  and  _361
REMARK  153  A    between atoms: _364  and  _366
REMARK  154  A    between atoms: _366  and  _367
REMARK  155  A    between atoms: _366  and  _369
REMARK  156  A    between atoms: _369  and  _370
REMARK  157  A    between atoms: _376  and  _378
REMARK  158  A    between atoms: _378  and  _379
REMARK  159  A    between atoms: _378  and  _381
REMARK  160  A    between atoms: _381  and  _382
REMARK  161  A    between atoms: _385  and  _387
REMARK  162  A    between atoms: _387  and  _388
REMARK  163  A    between atoms: _387  and  _390
REMARK  164  A    between atoms: _390  and  _391
REMARK  165  A    between atoms: _394  and  _396
REMARK  166  A    between atoms: _396  and  _397
REMARK  167  A    between atoms: _396  and  _399
REMARK  168  A    between atoms: _399  and  _400
REMARK  169  A    between atoms: _400  and  _401
REMARK  170  A    between atoms: _401  and  _402
REMARK  171  A    between atoms: _411  and  _413
REMARK  172  A    between atoms: _413  and  _414
REMARK  173  A    between atoms: _413  and  _416
REMARK  174  A    between atoms: _416  and  _417
REMARK  175  A    between atoms: _422  and  _424
REMARK  176  A    between atoms: _424  and  _425
REMARK  177  A    between atoms: _424  and  _427
REMARK  178  A    between atoms: _427  and  _428
REMARK  179  A    between atoms: _433  and  _435
REMARK  180  A    between atoms: _435  and  _436
REMARK  181  A    between atoms: _435  and  _438
REMARK  182  A    between atoms: _438  and  _439
REMARK  183  A    between atoms: _439  and  _440
REMARK  184  A    between atoms: _440  and  _441
REMARK  185  A    between atoms: _450  and  _452
REMARK  186  A    between atoms: _452  and  _453
REMARK  187  A    between atoms: _452  and  _455
REMARK  188  A    between atoms: _455  and  _456
REMARK  189  A    between atoms: _456  and  _457
REMARK  190  A    between atoms: _460  and  _462
REMARK  191  A    between atoms: _462  and  _463
REMARK  192  A    between atoms: _462  and  _465
REMARK  193  A    between atoms: _465  and  _466
REMARK  194  A    between atoms: _471  and  _472
REMARK  195  A    between atoms: _474  and  _476
REMARK  196  A    between atoms: _476  and  _477
REMARK  197  A    between atoms: _480  and  _482
REMARK  198  A    between atoms: _482  and  _483
REMARK  199  A    between atoms: _485  and  _487
REMARK  200  A    between atoms: _487  and  _488
REMARK  201  A    between atoms: _491  and  _493
REMARK  202  A    between atoms: _493  and  _494
REMARK  203  A    between atoms: _493  and  _496
REMARK  204  A    between atoms: _499  and  _501
REMARK  205  A    between atoms: _501  and  _502
REMARK  206  A    between atoms: _501  and  _504
REMARK  207  A    between atoms: _506  and  _508
REMARK  208  A    between atoms: _508  and  _509
REMARK  209  A    between atoms: _508  and  _511
REMARK  210  A    between atoms: _511  and  _512
REMARK  211  A    between atoms: _512  and  _513
REMARK                            x       y       z     vdW  Elec       q    Type
REMARK                         _______ _______ _______ _____ _____    ______ ____
ROOT
ATOM      1  CA  GLY A   2       7.362  -2.319  87.002  0.00  0.00    +0.176 C 
ENDROOT
BRANCH   1   3
ATOM      2  C   VAL A   1       6.535  -2.451  84.754  0.00  0.00    +0.238 C 
ATOM      3  N   GLY A   2       6.520  -1.833  85.927  0.00  0.00    -0.296 N 
ATOM      4  H   GLY A   2       5.908  -1.005  86.075  0.00  0.00    +0.150 HD
ATOM      5  O   VAL A   1       7.239  -3.434  84.534  0.00  0.00    -0.274 OA
BRANCH   2   6
ATOM      6  CA  VAL A   1       5.635  -1.884  83.661  0.00  0.00    +0.145 C 
BRANCH   6   7
ATOM      7  CB  VAL A   1       4.177  -2.333  83.926  0.00  0.00    +0.025 C 
ATOM      8  CG2 VAL A   1       4.108  -3.839  84.101  0.00  0.00    +0.002 C 
ATOM      9  CG1 VAL A   1       3.290  -1.907  82.776  0.00  0.00    +0.002 C 
ENDBRANCH   6   7
BRANCH   6  10
ATOM     10  N   VAL A   1       6.128  -2.383  82.380  0.00  0.00    -0.238 NA
ATOM     11  H   VAL A   1       6.359  -3.393  82.296  0.00  0.00    +0.142 HD
ENDBRANCH   6  10
ENDBRANCH   2   6
ENDBRANCH   1   3
BRANCH   1  12
ATOM     12  C   GLY A   2       6.827  -3.561  87.695  0.00  0.00    +0.243 C 
ATOM     13  N   ASP A   3       5.549  -3.523  88.050  0.00  0.00    -0.297 N 
ATOM     14  H   ASP A   3       4.987  -2.680  87.814  0.00  0.00    +0.150 HD
ATOM     15  O   GLY A   2       7.550  -4.543  87.888  0.00  0.00    -0.273 OA
BRANCH  13  16
ATOM     16  CA  ASP A   3       4.904  -4.622  88.760  0.00  0.00    +0.148 C 
BRANCH  16  17
ATOM     17  C   ASP A   3       4.444  -5.787  87.890  0.00  0.00    +0.227 C 
ATOM     18  O   ASP A   3       3.649  -5.611  86.968  0.00  0.00    -0.286 OA
ENDBRANCH  16  17
BRANCH  16  19
ATOM     19  CB  ASP A   3       3.701  -4.082  89.525  0.00  0.00    +0.142 C 
BRANCH  19  20
ATOM     20  CG  ASP A   3       3.157  -5.072  90.532  0.00  0.00    +0.367 C 
ATOM     21  OD2 ASP A   3       2.347  -4.652  91.387  0.00  0.00    -0.246 OA
ATOM     22  OD1 ASP A   3       3.531  -6.266  90.463  0.00  0.00    -0.246 OA
ENDBRANCH  19  20
ENDBRANCH  16  19
ENDBRANCH  13  16
ENDBRANCH   1  12
TORSDOF 9
REMARK  Name = ../refined-set-2016/1q1g/1q1g_pocket.pdb
REMARK  211 active torsions:
REMARK  status: ('A' for Active; 'I' for Inactive)
REMARK    1  A    between atoms: _1  and  _3
REMARK    2  A    between atoms: _3  and  _4
REMARK    3  A    between atoms: _3  and  _6
REMARK    4  A    between atoms: _9  and  _11
REMARK    5  A    between atoms: _11  and  _12
REMARK    6  A    between atoms: _14  and  _16
REMARK    7  A    between atoms: _16  and  _17
REMARK    8  A    between atoms: _16  and  _19
REMARK    9  A    between atoms: _19  and  _20
REMARK   10  A    between atoms: _23  and  _25
REMARK   11  A    between atoms: _25  and  _26
REMARK   12  A    between atoms: _25  and  _28
REMARK   13  A    between atoms: _28  and  _29
REMARK   14  A    between atoms: _34  and  _36
REMARK   15  A    between atoms: _36  and  _37
REMARK   16  A    between atoms: _39  and  _41
REMARK   17  A    between atoms: _41  and  _42
REMARK   18  A    between atoms: _41  and  _44
REMARK   19  A    between atoms: _47  and  _49
REMARK   20  A    between atoms: _49  and  _50
REMARK   21  A    between atoms: _52  and  _54
REMARK   22  A    between atoms: _54  and  _55
REMARK   23  A    between atoms: _54  and  _57
REMARK   24  A    between atoms: _57  and  _58
REMARK   25  A    between atoms: _60  and  _62
REMARK   26  A    between atoms: _62  and  _63
REMARK   27  A    between atoms: _62  and  _65
REMARK   28  A    between atoms: _65  and  _66
REMARK   29  A    between atoms: _66  and  _67
REMARK   30  A    between atoms: _67  and  _68
REMARK   31  A    between atoms: _77  and  _79
REMARK   32  A    between atoms: _79  and  _80
REMARK   33  A    between atoms: _82  and  _84
REMARK   34  A    between atoms: _84  and  _85
REMARK   35  A    between atoms: _84  and  _87
REMARK   36  A    between atoms: _87  and  _88
REMARK   37  A    between atoms: _90  and  _92
REMARK   38  A    between atoms: _92  and  _93
REMARK   39  A    between atoms: _92  and  _95
REMARK   40  A    between atoms: _97  and  _99
REMARK   41  A    between atoms: _99  and  _100
REMARK   42  A    between atoms: _102  and  _104
REMARK   43  A    between atoms: _104  and  _105
REMARK   44  A    between atoms: _104  and  _107
REMARK   45  A    between atoms: _107  and  _108
REMARK   46  A    between atoms: _110  and  _112
REMARK   47  A    between atoms: _112  and  _113
REMARK   48  A    between atoms: _112  and  _115
REMARK   49  A    between atoms: _115  and  _116
REMARK   50  A    between atoms: _119  and  _121
REMARK   51  A    between atoms: _121  and  _122
REMARK   52  A    between atoms: _121  and  _124
REMARK   53  A    between atoms: _124  and  _125
REMARK   54  A    between atoms: _127  and  _129
REMARK   55  A    between atoms: _129  and  _130
REMARK   56  A    between atoms: _129  and  _132
REMARK   57  A    between atoms: _135  and  _137
REMARK   58  A    between atoms: _137  and  _138
REMARK   59  A    between atoms: _137  and  _140
REMARK   60  A    between atoms: _140  and  _141
REMARK   61  A    between atoms: _143  and  _145
REMARK   62  A    between atoms: _145  and  _146
REMARK   63  A    between atoms: _145  and  _148
REMARK   64  A    between atoms: _148  and  _149
REMARK   65  A    between atoms: _151  and  _153
REMARK   66  A    between atoms: _153  and  _154
REMARK   67  A    between atoms: _153  and  _156
REMARK   68  A    between atoms: _156  and  _157
REMARK   69  A    between atoms: _160  and  _162
REMARK   70  A    between atoms: _162  and  _163
REMARK   71  A    between atoms: _162  and  _165
REMARK   72  A    between atoms: _165  and  _166
REMARK   73  A    between atoms: _166  and  _167
REMARK   74  A    between atoms: _169  and  _171
REMARK   75  A    between atoms: _171  and  _172
REMARK   76  A    between atoms: _171  and  _174
REMARK   77  A    between atoms: _174  and  _175
REMARK   78  A    between atoms: _180  and  _181
REMARK   79  A    between atoms: _183  and  _185
REMARK   80  A    between atoms: _185  and  _186
REMARK   81  A    between atoms: _185  and  _188
REMARK   82  A    between atoms: _188  and  _189
REMARK   83  A    between atoms: _194  and  _195
REMARK   84  A    between atoms: _197  and  _199
REMARK   85  A    between atoms: _199  and  _200
REMARK   86  A    between atoms: _199  and  _202
REMARK   87  A    between atoms: _202  and  _203
REMARK   88  A    between atoms: _206  and  _208
REMARK   89  A    between atoms: _208  and  _209
REMARK   90  A    between atoms: _208  and  _211
REMARK   91  A    between atoms: _214  and  _216
REMARK   92  A    between atoms: _216  and  _217
REMARK   93  A    between atoms: _216  and  _219
REMARK   94  A    between atoms: _222  and  _224
REMARK   95  A    between atoms: _224  and  _225
REMARK   96  A    between atoms: _224  and  _227
REMARK   97  A    between atoms: _227  and  _228
REMARK   98  A    between atoms: _228  and  _229
REMARK   99  A    between atoms: _232  and  _234
REMARK  100  A    between atoms: _234  and  _235
REMARK  101  A    between atoms: _234  and  _237
REMARK  102  A    between atoms: _237  and  _238
REMARK  103  A    between atoms: _238  and  _239
REMARK  104  A    between atoms: _241  and  _243
REMARK  105  A    between atoms: _243  and  _244
REMARK  106  A    between atoms: _243  and  _246
REMARK  107  A    between atoms: _246  and  _247
REMARK  108  A    between atoms: _247  and  _248
REMARK  109  A    between atoms: _251  and  _253
REMARK  110  A    between atoms: _253  and  _254
REMARK  111  A    between atoms: _253  and  _256
REMARK  112  A    between atoms: _256  and  _257
REMARK  113  A    between atoms: _260  and  _262
REMARK  114  A    between atoms: _262  and  _263
REMARK  115  A    between atoms: _262  and  _265
REMARK  116  A    between atoms: _265  and  _266
REMARK  117  A    between atoms: _269  and  _271
REMARK  118  A    between atoms: _271  and  _272
REMARK  119  A    between atoms: _271  and  _274
REMARK  120  A    between atoms: _274  and  _275
REMARK  121  A    between atoms: _278  and  _280
REMARK  122  A    between atoms: _280  and  _281
REMARK  123  A    between atoms: _280  and  _283
REMARK  124  A    between atoms: _286  and  _288
REMARK  125  A    between atoms: _288  and  _289
REMARK  126  A    between atoms: _288  and  _291
REMARK  127  A    between atoms: _291  and  _292
REMARK  128  A    between atoms: _295  and  _297
REMARK  129  A    between atoms: _297  and  _298
REMARK  130  A    between atoms: _300  and  _302
REMARK  131  A    between atoms: _302  and  _303
REMARK  132  A    between atoms: _302  and  _305
REMARK  133  A    between atoms: _308  and  _309
REMARK  134  A    between atoms: _314  and  _316
REMARK  135  A    between atoms: _316  and  _317
REMARK  136  A    between atoms: _316  and  _319
REMARK  137  A    between atoms: _319  and  _320
REMARK  138  A    between atoms: _326  and  _328
REMARK  139  A    between atoms: _328  and  _329
REMARK  140  A    between atoms: _328  and  _331
REMARK  141  A    between atoms: _331  and  _332
REMARK  142  A    between atoms: _332  and  _333
REMARK  143  A    between atoms: _333  and  _334
REMARK  144  A    between atoms: _334  and  _335
REMARK  145  A    between atoms: _339  and  _341
REMARK  146  A    between atoms: _341  and  _342
REMARK  147  A    between atoms: _341  and  _344
REMARK  148  A    between atoms: _344  and  _345
REMARK  149  A    between atoms: _355  and  _357
REMARK  150  A    between atoms: _357  and  _358
REMARK  151  A    between atoms: _357  and  _360
REMARK  152  A    between atoms: _360  and  _361
REMARK  153  A    between atoms: _364  and  _366
REMARK  154  A    between atoms: _366  and  _367
REMARK  155  A    between atoms: _366  and  _369
REMARK  156  A    between atoms: _369  and  _370
REMARK  157  A    between atoms: _376  and  _378
REMARK  158  A    between atoms: _378  and  _379
REMARK  159  A    between atoms: _378  and  _381
REMARK  160  A    between atoms: _381  and  _382
REMARK  161  A    between atoms: _385  and  _387
REMARK  162  A    between atoms: _387  and  _388
REMARK  163  A    between atoms: _387  and  _390
REMARK  164  A    between atoms: _390  and  _391
REMARK  165  A    between atoms: _394  and  _396
REMARK  166  A    between atoms: _396  and  _397
REMARK  167  A    between atoms: _396  and  _399
REMARK  168  A    between atoms: _399  and  _400
REMARK  169  A    between atoms: _400  and  _401
REMARK  170  A    between atoms: _401  and  _402
REMARK  171  A    between atoms: _411  and  _413
REMARK  172  A    between atoms: _413  and  _414
REMARK  173  A    between atoms: _413  and  _416
REMARK  174  A    between atoms: _416  and  _417
REMARK  175  A    between atoms: _422  and  _424
REMARK  176  A    between atoms: _424  and  _425
REMARK  177  A    between atoms: _424  and  _427
REMARK  178  A    between atoms: _427  and  _428
REMARK  179  A    between atoms: _433  and  _435
REMARK  180  A    between atoms: _435  and  _436
REMARK  181  A    between atoms: _435  and  _438
REMARK  182  A    between atoms: _438  and  _439
REMARK  183  A    between atoms: _439  and  _440
REMARK  184  A    between atoms: _440  and  _441
REMARK  185  A    between atoms: _450  and  _452
REMARK  186  A    between atoms: _452  and  _453
REMARK  187  A    between atoms: _452  and  _455
REMARK  188  A    between atoms: _455  and  _456
REMARK  189  A    between atoms: _456  and  _457
REMARK  190  A    between atoms: _460  and  _462
REMARK  191  A    between atoms: _462  and  _463
REMARK  192  A    between atoms: _462  and  _465
REMARK  193  A    between atoms: _465  and  _466
REMARK  194  A    between atoms: _471  and  _472
REMARK  195  A    between atoms: _474  and  _476
REMARK  196  A    between atoms: _476  and  _477
REMARK  197  A    between atoms: _480  and  _482
REMARK  198  A    between atoms: _482  and  _483
REMARK  199  A    between atoms: _485  and  _487
REMARK  200  A    between atoms: _487  and  _488
REMARK  201  A    between atoms: _491  and  _493
REMARK  202  A    between atoms: _493  and  _494
REMARK  203  A    between atoms: _493  and  _496
REMARK  204  A    between atoms: _499  and  _501
REMARK  205  A    between atoms: _501  and  _502
REMARK  206  A    between atoms: _501  and  _504
REMARK  207  A    between atoms: _506  and  _508
REMARK  208  A    between atoms: _508  and  _509
REMARK  209  A    between atoms: _508  and  _511
REMARK  210  A    between atoms: _511  and  _512
REMARK  211  A    between atoms: _512  and  _513
REMARK                            x       y       z     vdW  Elec       q    Type
REMARK                         _______ _______ _______ _____ _____    ______ ____
ROOT
ATOM      1  CA  VAL A   3      11.884  -2.195  90.713  0.00  0.00    +0.149 C 
ENDROOT
BRANCH   1   3
ATOM      2  C   GLY A   2      11.274  -3.597  88.804  0.00  0.00    +0.243 C 
ATOM      3  N   VAL A   3      11.486  -3.466  90.111  0.00  0.00    -0.297 N 
ATOM      4  H   VAL A   3      11.364  -4.296  90.725  0.00  0.00    +0.150 HD
ATOM      5  O   GLY A   2      11.380  -2.663  88.016  0.00  0.00    -0.273 OA
BRANCH   2   6
ATOM      6  CA  GLY A   2      10.879  -4.978  88.312  0.00  0.00    +0.176 C 
BRANCH   6   8
ATOM      7  C   HIS A   1      11.296  -5.036  85.926  0.00  0.00    +0.239 C 
ATOM      8  N   GLY A   2      10.423  -5.002  86.930  0.00  0.00    -0.296 N 
ATOM      9  H   GLY A   2       9.404  -4.992  86.725  0.00  0.00    +0.150 HD
ATOM     10  O   HIS A   1      12.514  -5.036  86.102  0.00  0.00    -0.274 OA
BRANCH   7  11
ATOM     11  CA  HIS A   1      10.724  -5.071  84.511  0.00  0.00    +0.151 C 
BRANCH  11  12
ATOM     12  N   HIS A   1       9.266  -5.196  84.448  0.00  0.00    -0.238 NA
ATOM     13  H   HIS A   1       8.666  -4.431  84.818  0.00  0.00    +0.142 HD
ENDBRANCH  11  12
BRANCH  11  14
ATOM     14  CB  HIS A   1      11.175  -3.825  83.731  0.00  0.00    +0.074 C 
BRANCH  14  15
ATOM     15  CG  HIS A   1      10.602  -2.543  84.247  0.00  0.00    +0.082 A 
ATOM     16  CD2 HIS A   1      10.524  -2.037  85.500  0.00  0.00    +0.115 A 
ATOM     17  NE2 HIS A   1       9.895  -0.819  85.411  0.00  0.00    -0.221 NA
ATOM     18  CE1 HIS A   1       9.599  -0.582  84.146  0.00  0.00    +0.199 A 
ATOM     19  ND1 HIS A   1      10.016  -1.606  83.422  0.00  0.00    -0.227 NA
ENDBRANCH  14  15
ENDBRANCH  11  14
ENDBRANCH   7  11
ENDBRANCH   6   8
ENDBRANCH   2   6
ENDBRANCH   1   3
BRANCH   1  20
ATOM     20  C   VAL A   3      13.389  -1.976  90.573  0.00  0.00    +0.241 C 
ATOM     21  O   VAL A   3      14.181  -2.875  90.870  0.00  0.00    -0.273 OA
ATOM     22  N   GLY A   4      13.787  -0.791  90.118  0.00  0.00    -0.295 N 
ATOM     23  H   GLY A   4      13.084  -0.074  89.846  0.00  0.00    +0.150 HD
BRANCH  22  24
ATOM     24  CA  GLY A   4      15.210  -0.500  90.001  0.00  0.00    +0.176 C 
BRANCH  24  25
ATOM     25  C   GLY A   4      15.865  -0.590  88.637  0.00  0.00    +0.243 C 
ATOM     26  N   SER A   5      16.800   0.326  88.401  0.00  0.00    -0.296 N 
ATOM     27  H   SER A   5      17.029   1.013  89.147  0.00  0.00    +0.150 HD
ATOM     28  O   GLY A   4      15.575  -1.479  87.829  0.00  0.00    -0.273 OA
BRANCH  26  29
ATOM     29  CA  SER A   5      17.517   0.401  87.131  0.00  0.00    +0.166 C 
BRANCH  29  30
ATOM     30  C   SER A   5      18.311  -0.847  86.748  0.00  0.00    +0.229 C 
ATOM     31  O   SER A   5      18.240  -1.302  85.609  0.00  0.00    -0.286 OA
ENDBRANCH  29  30
BRANCH  29  32
ATOM     32  CB  SER A   5      18.454   1.609  87.142  0.00  0.00    +0.165 C 
BRANCH  32  33
ATOM     33  OG  SER A   5      19.378   1.511  88.212  0.00  0.00    -0.380 OA
ATOM     34  H   SER A   5      19.916   0.687  88.107  0.00  0.00    +0.211 HD
ENDBRANCH  32  33
ENDBRANCH  29  32
ENDBRANCH  26  29
ENDBRANCH  24  25
ENDBRANCH  22  24
ENDBRANCH   1  20
BRANCH   1  35
ATOM     35  CB  VAL A   3      11.567  -2.155  92.227  0.00  0.00    +0.027 C 
ATOM     36  CG2 VAL A   3      11.994  -0.813  92.807  0.00  0.00    +0.002 C 
ATOM     37  CG1 VAL A   3      10.083  -2.393  92.466  0.00  0.00    +0.002 C 
ENDBRANCH   1  35
TORSDOF 15
REMARK  Name = ../refined-set-2016/1q1g/1q1g_pocket.pdb
REMARK  211 active torsions:
REMARK  status: ('A' for Active; 'I' for Inactive)
REMARK    1  A    between atoms: _1  and  _3
REMARK    2  A    between atoms: _3  and  _4
REMARK    3  A    between atoms: _3  and  _6
REMARK    4  A    between atoms: _9  and  _11
REMARK    5  A    between atoms: _11  and  _12
REMARK    6  A    between atoms: _14  and  _16
REMARK    7  A    between atoms: _16  and  _17
REMARK    8  A    between atoms: _16  and  _19
REMARK    9  A    between atoms: _19  and  _20
REMARK   10  A    between atoms: _23  and  _25
REMARK   11  A    between atoms: _25  and  _26
REMARK   12  A    between atoms: _25  and  _28
REMARK   13  A    between atoms: _28  and  _29
REMARK   14  A    between atoms: _34  and  _36
REMARK   15  A    between atoms: _36  and  _37
REMARK   16  A    between atoms: _39  and  _41
REMARK   17  A    between atoms: _41  and  _42
REMARK   18  A    between atoms: _41  and  _44
REMARK   19  A    between atoms: _47  and  _49
REMARK   20  A    between atoms: _49  and  _50
REMARK   21  A    between atoms: _52  and  _54
REMARK   22  A    between atoms: _54  and  _55
REMARK   23  A    between atoms: _54  and  _57
REMARK   24  A    between atoms: _57  and  _58
REMARK   25  A    between atoms: _60  and  _62
REMARK   26  A    between atoms: _62  and  _63
REMARK   27  A    between atoms: _62  and  _65
REMARK   28  A    between atoms: _65  and  _66
REMARK   29  A    between atoms: _66  and  _67
REMARK   30  A    between atoms: _67  and  _68
REMARK   31  A    between atoms: _77  and  _79
REMARK   32  A    between atoms: _79  and  _80
REMARK   33  A    between atoms: _82  and  _84
REMARK   34  A    between atoms: _84  and  _85
REMARK   35  A    between atoms: _84  and  _87
REMARK   36  A    between atoms: _87  and  _88
REMARK   37  A    between atoms: _90  and  _92
REMARK   38  A    between atoms: _92  and  _93
REMARK   39  A    between atoms: _92  and  _95
REMARK   40  A    between atoms: _97  and  _99
REMARK   41  A    between atoms: _99  and  _100
REMARK   42  A    between atoms: _102  and  _104
REMARK   43  A    between atoms: _104  and  _105
REMARK   44  A    between atoms: _104  and  _107
REMARK   45  A    between atoms: _107  and  _108
REMARK   46  A    between atoms: _110  and  _112
REMARK   47  A    between atoms: _112  and  _113
REMARK   48  A    between atoms: _112  and  _115
REMARK   49  A    between atoms: _115  and  _116
REMARK   50  A    between atoms: _119  and  _121
REMARK   51  A    between atoms: _121  and  _122
REMARK   52  A    between atoms: _121  and  _124
REMARK   53  A    between atoms: _124  and  _125
REMARK   54  A    between atoms: _127  and  _129
REMARK   55  A    between atoms: _129  and  _130
REMARK   56  A    between atoms: _129  and  _132
REMARK   57  A    between atoms: _135  and  _137
REMARK   58  A    between atoms: _137  and  _138
REMARK   59  A    between atoms: _137  and  _140
REMARK   60  A    between atoms: _140  and  _141
REMARK   61  A    between atoms: _143  and  _145
REMARK   62  A    between atoms: _145  and  _146
REMARK   63  A    between atoms: _145  and  _148
REMARK   64  A    between atoms: _148  and  _149
REMARK   65  A    between atoms: _151  and  _153
REMARK   66  A    between atoms: _153  and  _154
REMARK   67  A    between atoms: _153  and  _156
REMARK   68  A    between atoms: _156  and  _157
REMARK   69  A    between atoms: _160  and  _162
REMARK   70  A    between atoms: _162  and  _163
REMARK   71  A    between atoms: _162  and  _165
REMARK   72  A    between atoms: _165  and  _166
REMARK   73  A    between atoms: _166  and  _167
REMARK   74  A    between atoms: _169  and  _171
REMARK   75  A    between atoms: _171  and  _172
REMARK   76  A    between atoms: _171  and  _174
REMARK   77  A    between atoms: _174  and  _175
REMARK   78  A    between atoms: _180  and  _181
REMARK   79  A    between atoms: _183  and  _185
REMARK   80  A    between atoms: _185  and  _186
REMARK   81  A    between atoms: _185  and  _188
REMARK   82  A    between atoms: _188  and  _189
REMARK   83  A    between atoms: _194  and  _195
REMARK   84  A    between atoms: _197  and  _199
REMARK   85  A    between atoms: _199  and  _200
REMARK   86  A    between atoms: _199  and  _202
REMARK   87  A    between atoms: _202  and  _203
REMARK   88  A    between atoms: _206  and  _208
REMARK   89  A    between atoms: _208  and  _209
REMARK   90  A    between atoms: _208  and  _211
REMARK   91  A    between atoms: _214  and  _216
REMARK   92  A    between atoms: _216  and  _217
REMARK   93  A    between atoms: _216  and  _219
REMARK   94  A    between atoms: _222  and  _224
REMARK   95  A    between atoms: _224  and  _225
REMARK   96  A    between atoms: _224  and  _227
REMARK   97  A    between atoms: _227  and  _228
REMARK   98  A    between atoms: _228  and  _229
REMARK   99  A    between atoms: _232  and  _234
REMARK  100  A    between atoms: _234  and  _235
REMARK  101  A    between atoms: _234  and  _237
REMARK  102  A    between atoms: _237  and  _238
REMARK  103  A    between atoms: _238  and  _239
REMARK  104  A    between atoms: _241  and  _243
REMARK  105  A    between atoms: _243  and  _244
REMARK  106  A    between atoms: _243  and  _246
REMARK  107  A    between atoms: _246  and  _247
REMARK  108  A    between atoms: _247  and  _248
REMARK  109  A    between atoms: _251  and  _253
REMARK  110  A    between atoms: _253  and  _254
REMARK  111  A    between atoms: _253  and  _256
REMARK  112  A    between atoms: _256  and  _257
REMARK  113  A    between atoms: _260  and  _262
REMARK  114  A    between atoms: _262  and  _263
REMARK  115  A    between atoms: _262  and  _265
REMARK  116  A    between atoms: _265  and  _266
REMARK  117  A    between atoms: _269  and  _271
REMARK  118  A    between atoms: _271  and  _272
REMARK  119  A    between atoms: _271  and  _274
REMARK  120  A    between atoms: _274  and  _275
REMARK  121  A    between atoms: _278  and  _280
REMARK  122  A    between atoms: _280  and  _281
REMARK  123  A    between atoms: _280  and  _283
REMARK  124  A    between atoms: _286  and  _288
REMARK  125  A    between atoms: _288  and  _289
REMARK  126  A    between atoms: _288  and  _291
REMARK  127  A    between atoms: _291  and  _292
REMARK  128  A    between atoms: _295  and  _297
REMARK  129  A    between atoms: _297  and  _298
REMARK  130  A    between atoms: _300  and  _302
REMARK  131  A    between atoms: _302  and  _303
REMARK  132  A    between atoms: _302  and  _305
REMARK  133  A    between atoms: _308  and  _309
REMARK  134  A    between atoms: _314  and  _316
REMARK  135  A    between atoms: _316  and  _317
REMARK  136  A    between atoms: _316  and  _319
REMARK  137  A    between atoms: _319  and  _320
REMARK  138  A    between atoms: _326  and  _328
REMARK  139  A    between atoms: _328  and  _329
REMARK  140  A    between atoms: _328  and  _331
REMARK  141  A    between atoms: _331  and  _332
REMARK  142  A    between atoms: _332  and  _333
REMARK  143  A    between atoms: _333  and  _334
REMARK  144  A    between atoms: _334  and  _335
REMARK  145  A    between atoms: _339  and  _341
REMARK  146  A    between atoms: _341  and  _342
REMARK  147  A    between atoms: _341  and  _344
REMARK  148  A    between atoms: _344  and  _345
REMARK  149  A    between atoms: _355  and  _357
REMARK  150  A    between atoms: _357  and  _358
REMARK  151  A    between atoms: _357  and  _360
REMARK  152  A    between atoms: _360  and  _361
REMARK  153  A    between atoms: _364  and  _366
REMARK  154  A    between atoms: _366  and  _367
REMARK  155  A    between atoms: _366  and  _369
REMARK  156  A    between atoms: _369  and  _370
REMARK  157  A    between atoms: _376  and  _378
REMARK  158  A    between atoms: _378  and  _379
REMARK  159  A    between atoms: _378  and  _381
REMARK  160  A    between atoms: _381  and  _382
REMARK  161  A    between atoms: _385  and  _387
REMARK  162  A    between atoms: _387  and  _388
REMARK  163  A    between atoms: _387  and  _390
REMARK  164  A    between atoms: _390  and  _391
REMARK  165  A    between atoms: _394  and  _396
REMARK  166  A    between atoms: _396  and  _397
REMARK  167  A    between atoms: _396  and  _399
REMARK  168  A    between atoms: _399  and  _400
REMARK  169  A    between atoms: _400  and  _401
REMARK  170  A    between atoms: _401  and  _402
REMARK  171  A    between atoms: _411  and  _413
REMARK  172  A    between atoms: _413  and  _414
REMARK  173  A    between atoms: _413  and  _416
REMARK  174  A    between atoms: _416  and  _417
REMARK  175  A    between atoms: _422  and  _424
REMARK  176  A    between atoms: _424  and  _425
REMARK  177  A    between atoms: _424  and  _427
REMARK  178  A    between atoms: _427  and  _428
REMARK  179  A    between atoms: _433  and  _435
REMARK  180  A    between atoms: _435  and  _436
REMARK  181  A    between atoms: _435  and  _438
REMARK  182  A    between atoms: _438  and  _439
REMARK  183  A    between atoms: _439  and  _440
REMARK  184  A    between atoms: _440  and  _441
REMARK  185  A    between atoms: _450  and  _452
REMARK  186  A    between atoms: _452  and  _453
REMARK  187  A    between atoms: _452  and  _455
REMARK  188  A    between atoms: _455  and  _456
REMARK  189  A    between atoms: _456  and  _457
REMARK  190  A    between atoms: _460  and  _462
REMARK  191  A    between atoms: _462  and  _463
REMARK  192  A    between atoms: _462  and  _465
REMARK  193  A    between atoms: _465  and  _466
REMARK  194  A    between atoms: _471  and  _472
REMARK  195  A    between atoms: _474  and  _476
REMARK  196  A    between atoms: _476  and  _477
REMARK  197  A    between atoms: _480  and  _482
REMARK  198  A    between atoms: _482  and  _483
REMARK  199  A    between atoms: _485  and  _487
REMARK  200  A    between atoms: _487  and  _488
REMARK  201  A    between atoms: _491  and  _493
REMARK  202  A    between atoms: _493  and  _494
REMARK  203  A    between atoms: _493  and  _496
REMARK  204  A    between atoms: _499  and  _501
REMARK  205  A    between atoms: _501  and  _502
REMARK  206  A    between atoms: _501  and  _504
REMARK  207  A    between atoms: _506  and  _508
REMARK  208  A    between atoms: _508  and  _509
REMARK  209  A    between atoms: _508  and  _511
REMARK  210  A    between atoms: _511  and  _512
REMARK  211  A    between atoms: _512  and  _513
REMARK                            x       y       z     vdW  Elec       q    Type
REMARK                         _______ _______ _______ _____ _____    ______ ____
ROOT
ATOM      1  NE  ARG A   1       9.279   3.824  84.498  0.00  0.00    -0.265 N 
ATOM      2  CZ  ARG A   1       8.589   3.259  85.487  0.00  0.00    +0.342 C 
ATOM      3  NH2 ARG A   1       8.353   3.942  86.601  0.00  0.00    -0.292 N 
ATOM      4 HH21 ARG A   1       7.814   3.504  87.375  0.00  0.00    +0.255 HD
ATOM      5 HH22 ARG A   1       8.707   4.915  86.699  0.00  0.00    +0.255 HD
ATOM      6  NH1 ARG A   1       8.117   2.025  85.361  0.00  0.00    -0.292 N 
ATOM      7 HH11 ARG A   1       7.579   1.592  86.139  0.00  0.00    +0.255 HD
ATOM      8 HH12 ARG A   1       8.285   1.491  84.484  0.00  0.00    +0.255 HD
ATOM      9  HE  ARG A   1       9.631   4.790  84.651  0.00  0.00    +0.259 HD
ENDROOT
BRANCH   1  10
ATOM     10  CD  ARG A   1       9.581   3.189  83.209  0.00  0.00    +0.174 C 
BRANCH  10  11
ATOM     11  CG  ARG A   1       8.318   2.905  82.398  0.00  0.00    +0.045 C 
BRANCH  11  12
ATOM     12  CB  ARG A   1       8.568   2.850  80.886  0.00  0.00    +0.029 C 
BRANCH  12  13
ATOM     13  CA  ARG A   1       7.310   2.493  80.085  0.00  0.00    +0.133 C 
BRANCH  13  14
ATOM     14  N   ARG A   1       7.448   2.830  78.681  0.00  0.00    -0.239 NA
ATOM     15  H   ARG A   1       7.946   3.700  78.404  0.00  0.00    +0.142 HD
ENDBRANCH  13  14
BRANCH  13  16
ATOM     16  C   ARG A   1       6.131   3.245  80.666  0.00  0.00    +0.224 C 
ATOM     17  O   ARG A   1       6.003   4.457  80.498  0.00  0.00    -0.287 OA
ENDBRANCH  13  16
ENDBRANCH  12  13
ENDBRANCH  11  12
ENDBRANCH  10  11
ENDBRANCH   1  10
TORSDOF 6
REMARK  Name = ../refined-set-2016/1q1g/1q1g_pocket.pdb
REMARK  211 active torsions:
REMARK  status: ('A' for Active; 'I' for Inactive)
REMARK    1  A    between atoms: _1  and  _3
REMARK    2  A    between atoms: _3  and  _4
REMARK    3  A    between atoms: _3  and  _6
REMARK    4  A    between atoms: _9  and  _11
REMARK    5  A    between atoms: _11  and  _12
REMARK    6  A    between atoms: _14  and  _16
REMARK    7  A    between atoms: _16  and  _17
REMARK    8  A    between atoms: _16  and  _19
REMARK    9  A    between atoms: _19  and  _20
REMARK   10  A    between atoms: _23  and  _25
REMARK   11  A    between atoms: _25  and  _26
REMARK   12  A    between atoms: _25  and  _28
REMARK   13  A    between atoms: _28  and  _29
REMARK   14  A    between atoms: _34  and  _36
REMARK   15  A    between atoms: _36  and  _37
REMARK   16  A    between atoms: _39  and  _41
REMARK   17  A    between atoms: _41  and  _42
REMARK   18  A    between atoms: _41  and  _44
REMARK   19  A    between atoms: _47  and  _49
REMARK   20  A    between atoms: _49  and  _50
REMARK   21  A    between atoms: _52  and  _54
REMARK   22  A    between atoms: _54  and  _55
REMARK   23  A    between atoms: _54  and  _57
REMARK   24  A    between atoms: _57  and  _58
REMARK   25  A    between atoms: _60  and  _62
REMARK   26  A    between atoms: _62  and  _63
REMARK   27  A    between atoms: _62  and  _65
REMARK   28  A    between atoms: _65  and  _66
REMARK   29  A    between atoms: _66  and  _67
REMARK   30  A    between atoms: _67  and  _68
REMARK   31  A    between atoms: _77  and  _79
REMARK   32  A    between atoms: _79  and  _80
REMARK   33  A    between atoms: _82  and  _84
REMARK   34  A    between atoms: _84  and  _85
REMARK   35  A    between atoms: _84  and  _87
REMARK   36  A    between atoms: _87  and  _88
REMARK   37  A    between atoms: _90  and  _92
REMARK   38  A    between atoms: _92  and  _93
REMARK   39  A    between atoms: _92  and  _95
REMARK   40  A    between atoms: _97  and  _99
REMARK   41  A    between atoms: _99  and  _100
REMARK   42  A    between atoms: _102  and  _104
REMARK   43  A    between atoms: _104  and  _105
REMARK   44  A    between atoms: _104  and  _107
REMARK   45  A    between atoms: _107  and  _108
REMARK   46  A    between atoms: _110  and  _112
REMARK   47  A    between atoms: _112  and  _113
REMARK   48  A    between atoms: _112  and  _115
REMARK   49  A    between atoms: _115  and  _116
REMARK   50  A    between atoms: _119  and  _121
REMARK   51  A    between atoms: _121  and  _122
REMARK   52  A    between atoms: _121  and  _124
REMARK   53  A    between atoms: _124  and  _125
REMARK   54  A    between atoms: _127  and  _129
REMARK   55  A    between atoms: _129  and  _130
REMARK   56  A    between atoms: _129  and  _132
REMARK   57  A    between atoms: _135  and  _137
REMARK   58  A    between atoms: _137  and  _138
REMARK   59  A    between atoms: _137  and  _140
REMARK   60  A    between atoms: _140  and  _141
REMARK   61  A    between atoms: _143  and  _145
REMARK   62  A    between atoms: _145  and  _146
REMARK   63  A    between atoms: _145  and  _148
REMARK   64  A    between atoms: _148  and  _149
REMARK   65  A    between atoms: _151  and  _153
REMARK   66  A    between atoms: _153  and  _154
REMARK   67  A    between atoms: _153  and  _156
REMARK   68  A    between atoms: _156  and  _157
REMARK   69  A    between atoms: _160  and  _162
REMARK   70  A    between atoms: _162  and  _163
REMARK   71  A    between atoms: _162  and  _165
REMARK   72  A    between atoms: _165  and  _166
REMARK   73  A    between atoms: _166  and  _167
REMARK   74  A    between atoms: _169  and  _171
REMARK   75  A    between atoms: _171  and  _172
REMARK   76  A    between atoms: _171  and  _174
REMARK   77  A    between atoms: _174  and  _175
REMARK   78  A    between atoms: _180  and  _181
REMARK   79  A    between atoms: _183  and  _185
REMARK   80  A    between atoms: _185  and  _186
REMARK   81  A    between atoms: _185  and  _188
REMARK   82  A    between atoms: _188  and  _189
REMARK   83  A    between atoms: _194  and  _195
REMARK   84  A    between atoms: _197  and  _199
REMARK   85  A    between atoms: _199  and  _200
REMARK   86  A    between atoms: _199  and  _202
REMARK   87  A    between atoms: _202  and  _203
REMARK   88  A    between atoms: _206  and  _208
REMARK   89  A    between atoms: _208  and  _209
REMARK   90  A    between atoms: _208  and  _211
REMARK   91  A    between atoms: _214  and  _216
REMARK   92  A    between atoms: _216  and  _217
REMARK   93  A    between atoms: _216  and  _219
REMARK   94  A    between atoms: _222  and  _224
REMARK   95  A    between atoms: _224  and  _225
REMARK   96  A    between atoms: _224  and  _227
REMARK   97  A    between atoms: _227  and  _228
REMARK   98  A    between atoms: _228  and  _229
REMARK   99  A    between atoms: _232  and  _234
REMARK  100  A    between atoms: _234  and  _235
REMARK  101  A    between atoms: _234  and  _237
REMARK  102  A    between atoms: _237  and  _238
REMARK  103  A    between atoms: _238  and  _239
REMARK  104  A    between atoms: _241  and  _243
REMARK  105  A    between atoms: _243  and  _244
REMARK  106  A    between atoms: _243  and  _246
REMARK  107  A    between atoms: _246  and  _247
REMARK  108  A    between atoms: _247  and  _248
REMARK  109  A    between atoms: _251  and  _253
REMARK  110  A    between atoms: _253  and  _254
REMARK  111  A    between atoms: _253  and  _256
REMARK  112  A    between atoms: _256  and  _257
REMARK  113  A    between atoms: _260  and  _262
REMARK  114  A    between atoms: _262  and  _263
REMARK  115  A    between atoms: _262  and  _265
REMARK  116  A    between atoms: _265  and  _266
REMARK  117  A    between atoms: _269  and  _271
REMARK  118  A    between atoms: _271  and  _272
REMARK  119  A    between atoms: _271  and  _274
REMARK  120  A    between atoms: _274  and  _275
REMARK  121  A    between atoms: _278  and  _280
REMARK  122  A    between atoms: _280  and  _281
REMARK  123  A    between atoms: _280  and  _283
REMARK  124  A    between atoms: _286  and  _288
REMARK  125  A    between atoms: _288  and  _289
REMARK  126  A    between atoms: _288  and  _291
REMARK  127  A    between atoms: _291  and  _292
REMARK  128  A    between atoms: _295  and  _297
REMARK  129  A    between atoms: _297  and  _298
REMARK  130  A    between atoms: _300  and  _302
REMARK  131  A    between atoms: _302  and  _303
REMARK  132  A    between atoms: _302  and  _305
REMARK  133  A    between atoms: _308  and  _309
REMARK  134  A    between atoms: _314  and  _316
REMARK  135  A    between atoms: _316  and  _317
REMARK  136  A    between atoms: _316  and  _319
REMARK  137  A    between atoms: _319  and  _320
REMARK  138  A    between atoms: _326  and  _328
REMARK  139  A    between atoms: _328  and  _329
REMARK  140  A    between atoms: _328  and  _331
REMARK  141  A    between atoms: _331  and  _332
REMARK  142  A    between atoms: _332  and  _333
REMARK  143  A    between atoms: _333  and  _334
REMARK  144  A    between atoms: _334  and  _335
REMARK  145  A    between atoms: _339  and  _341
REMARK  146  A    between atoms: _341  and  _342
REMARK  147  A    between atoms: _341  and  _344
REMARK  148  A    between atoms: _344  and  _345
REMARK  149  A    between atoms: _355  and  _357
REMARK  150  A    between atoms: _357  and  _358
REMARK  151  A    between atoms: _357  and  _360
REMARK  152  A    between atoms: _360  and  _361
REMARK  153  A    between atoms: _364  and  _366
REMARK  154  A    between atoms: _366  and  _367
REMARK  155  A    between atoms: _366  and  _369
REMARK  156  A    between atoms: _369  and  _370
REMARK  157  A    between atoms: _376  and  _378
REMARK  158  A    between atoms: _378  and  _379
REMARK  159  A    between atoms: _378  and  _381
REMARK  160  A    between atoms: _381  and  _382
REMARK  161  A    between atoms: _385  and  _387
REMARK  162  A    between atoms: _387  and  _388
REMARK  163  A    between atoms: _387  and  _390
REMARK  164  A    between atoms: _390  and  _391
REMARK  165  A    between atoms: _394  and  _396
REMARK  166  A    between atoms: _396  and  _397
REMARK  167  A    between atoms: _396  and  _399
REMARK  168  A    between atoms: _399  and  _400
REMARK  169  A    between atoms: _400  and  _401
REMARK  170  A    between atoms: _401  and  _402
REMARK  171  A    between atoms: _411  and  _413
REMARK  172  A    between atoms: _413  and  _414
REMARK  173  A    between atoms: _413  and  _416
REMARK  174  A    between atoms: _416  and  _417
REMARK  175  A    between atoms: _422  and  _424
REMARK  176  A    between atoms: _424  and  _425
REMARK  177  A    between atoms: _424  and  _427
REMARK  178  A    between atoms: _427  and  _428
REMARK  179  A    between atoms: _433  and  _435
REMARK  180  A    between atoms: _435  and  _436
REMARK  181  A    between atoms: _435  and  _438
REMARK  182  A    between atoms: _438  and  _439
REMARK  183  A    between atoms: _439  and  _440
REMARK  184  A    between atoms: _440  and  _441
REMARK  185  A    between atoms: _450  and  _452
REMARK  186  A    between atoms: _452  and  _453
REMARK  187  A    between atoms: _452  and  _455
REMARK  188  A    between atoms: _455  and  _456
REMARK  189  A    between atoms: _456  and  _457
REMARK  190  A    between atoms: _460  and  _462
REMARK  191  A    between atoms: _462  and  _463
REMARK  192  A    between atoms: _462  and  _465
REMARK  193  A    between atoms: _465  and  _466
REMARK  194  A    between atoms: _471  and  _472
REMARK  195  A    between atoms: _474  and  _476
REMARK  196  A    between atoms: _476  and  _477
REMARK  197  A    between atoms: _480  and  _482
REMARK  198  A    between atoms: _482  and  _483
REMARK  199  A    between atoms: _485  and  _487
REMARK  200  A    between atoms: _487  and  _488
REMARK  201  A    between atoms: _491  and  _493
REMARK  202  A    between atoms: _493  and  _494
REMARK  203  A    between atoms: _493  and  _496
REMARK  204  A    between atoms: _499  and  _501
REMARK  205  A    between atoms: _501  and  _502
REMARK  206  A    between atoms: _501  and  _504
REMARK  207  A    between atoms: _506  and  _508
REMARK  208  A    between atoms: _508  and  _509
REMARK  209  A    between atoms: _508  and  _511
REMARK  210  A    between atoms: _511  and  _512
REMARK  211  A    between atoms: _512  and  _513
REMARK                            x       y       z     vdW  Elec       q    Type
REMARK                         _______ _______ _______ _____ _____    ______ ____
ROOT
ATOM      1  C   CYS A   3       5.727   9.266  91.291  0.00  0.00    +0.242 C 
ATOM      2  O   CYS A   3       4.588   9.245  91.755  0.00  0.00    -0.273 OA
ATOM      3  N   GLY A   4       6.683  10.056  91.751  0.00  0.00    -0.295 N 
ATOM      4  H   GLY A   4       7.638  10.004  91.342  0.00  0.00    +0.150 HD
ENDROOT
BRANCH   3   5
ATOM      5  CA  GLY A   4       6.408  10.989  92.817  0.00  0.00    +0.176 C 
BRANCH   5   6
ATOM      6  C   GLY A   4       6.441  12.357  92.177  0.00  0.00    +0.243 C 
ATOM      7  N   SER A   5       5.819  13.334  92.818  0.00  0.00    -0.295 N 
ATOM      8  H   SER A   5       5.337  13.139  93.719  0.00  0.00    +0.150 HD
ATOM      9  O   GLY A   4       7.028  12.533  91.107  0.00  0.00    -0.273 OA
BRANCH   7  10
ATOM     10  CA  SER A   5       5.807  14.677  92.268  0.00  0.00    +0.178 C 
BRANCH  10  11
ATOM     11  C   SER A   5       6.942  15.531  92.824  0.00  0.00    +0.243 C 
ATOM     12  O   SER A   5       7.196  15.527  94.028  0.00  0.00    -0.273 OA
ATOM     13  N   LEU A   6       7.635  16.256  91.945  0.00  0.00    -0.298 N 
ATOM     14  H   LEU A   6       7.404  16.198  90.933  0.00  0.00    +0.150 HD
BRANCH  13  15
ATOM     15  CA  LEU A   6       8.714  17.129  92.393  0.00  0.00    +0.137 C 
BRANCH  15  16
ATOM     16  C   LEU A   6       8.245  18.577  92.378  0.00  0.00    +0.227 C 
ATOM     17  O   LEU A   6       9.006  19.495  92.674  0.00  0.00    -0.286 OA
ENDBRANCH  15  16
BRANCH  15  18
ATOM     18  CB  LEU A   6       9.958  16.963  91.515  0.00  0.00    +0.028 C 
BRANCH  18  19
ATOM     19  CG  LEU A   6      10.658  15.609  91.644  0.00  0.00    +0.002 C 
ATOM     20  CD2 LEU A   6      10.821  15.254  93.115  0.00  0.00    +0.000 C 
ATOM     21  CD1 LEU A   6      12.023  15.683  90.963  0.00  0.00    +0.000 C 
ENDBRANCH  18  19
ENDBRANCH  15  18
ENDBRANCH  13  15
ENDBRANCH  10  11
BRANCH  10  22
ATOM     22  CB  SER A   5       4.464  15.339  92.566  0.00  0.00    +0.166 C 
BRANCH  22  23
ATOM     23  OG  SER A   5       4.566  16.740  92.454  0.00  0.00    -0.380 OA
ATOM     24  H   SER A   5       3.687  17.150  92.651  0.00  0.00    +0.211 HD
ENDBRANCH  22  23
ENDBRANCH  10  22
ENDBRANCH   7  10
ENDBRANCH   5   6
ENDBRANCH   3   5
BRANCH   1  25
ATOM     25  CA  CYS A   3       6.121   8.362  90.147  0.00  0.00    +0.160 C 
BRANCH  25  27
ATOM     26  C   SER A   2       5.286   6.321  89.182  0.00  0.00    +0.243 C 
ATOM     27  N   CYS A   3       5.043   7.443  89.845  0.00  0.00    -0.296 N 
ATOM     28  H   CYS A   3       4.074   7.664  90.150  0.00  0.00    +0.150 HD
ATOM     29  O   SER A   2       6.412   5.993  88.823  0.00  0.00    -0.273 OA
BRANCH  26  30
ATOM     30  CA  SER A   2       4.091   5.434  88.894  0.00  0.00    +0.178 C 
BRANCH  30  32
ATOM     31  C   GLY A   1       4.058   4.471  86.659  0.00  0.00    +0.240 C 
ATOM     32  N   SER A   2       4.444   4.403  87.928  0.00  0.00    -0.295 N 
ATOM     33  H   SER A   2       5.014   3.591  88.240  0.00  0.00    +0.150 HD
ATOM     34  O   GLY A   1       3.382   5.395  86.213  0.00  0.00    -0.274 OA
BRANCH  31  35
ATOM     35  CA  GLY A   1       4.492   3.333  85.763  0.00  0.00    +0.169 C 
BRANCH  35  36
ATOM     36  N   GLY A   1       4.321   3.639  84.354  0.00  0.00    -0.236 NA
ATOM     37  H   GLY A   1       4.247   4.628  84.040  0.00  0.00    +0.142 HD
ENDBRANCH  35  36
ENDBRANCH  31  35
ENDBRANCH  30  32
BRANCH  30  38
ATOM     38  CB  SER A   2       3.595   4.796  90.198  0.00  0.00    +0.166 C 
BRANCH  38  39
ATOM     39  OG  SER A   2       4.443   3.733  90.588  0.00  0.00    -0.380 OA
ATOM     40  H   SER A   2       4.106   3.336  91.430  0.00  0.00    +0.211 HD
ENDBRANCH  38  39
ENDBRANCH  30  38
ENDBRANCH  26  30
ENDBRANCH  25  27
BRANCH  25  41
ATOM     41  CB  CYS A   3       6.430   9.216  88.919  0.00  0.00    +0.098 C 
ATOM     42  SG  CYS A   3       5.066  10.324  88.436  0.00  0.00    -0.080 S 
ENDBRANCH  25  41
ENDBRANCH   1  25
TORSDOF 19
REMARK  Name = ../refined-set-2016/1q1g/1q1g_pocket.pdb
REMARK  211 active torsions:
REMARK  status: ('A' for Active; 'I' for Inactive)
REMARK    1  A    between atoms: _1  and  _3
REMARK    2  A    between atoms: _3  and  _4
REMARK    3  A    between atoms: _3  and  _6
REMARK    4  A    between atoms: _9  and  _11
REMARK    5  A    between atoms: _11  and  _12
REMARK    6  A    between atoms: _14  and  _16
REMARK    7  A    between atoms: _16  and  _17
REMARK    8  A    between atoms: _16  and  _19
REMARK    9  A    between atoms: _19  and  _20
REMARK   10  A    between atoms: _23  and  _25
REMARK   11  A    between atoms: _25  and  _26
REMARK   12  A    between atoms: _25  and  _28
REMARK   13  A    between atoms: _28  and  _29
REMARK   14  A    between atoms: _34  and  _36
REMARK   15  A    between atoms: _36  and  _37
REMARK   16  A    between atoms: _39  and  _41
REMARK   17  A    between atoms: _41  and  _42
REMARK   18  A    between atoms: _41  and  _44
REMARK   19  A    between atoms: _47  and  _49
REMARK   20  A    between atoms: _49  and  _50
REMARK   21  A    between atoms: _52  and  _54
REMARK   22  A    between atoms: _54  and  _55
REMARK   23  A    between atoms: _54  and  _57
REMARK   24  A    between atoms: _57  and  _58
REMARK   25  A    between atoms: _60  and  _62
REMARK   26  A    between atoms: _62  and  _63
REMARK   27  A    between atoms: _62  and  _65
REMARK   28  A    between atoms: _65  and  _66
REMARK   29  A    between atoms: _66  and  _67
REMARK   30  A    between atoms: _67  and  _68
REMARK   31  A    between atoms: _77  and  _79
REMARK   32  A    between atoms: _79  and  _80
REMARK   33  A    between atoms: _82  and  _84
REMARK   34  A    between atoms: _84  and  _85
REMARK   35  A    between atoms: _84  and  _87
REMARK   36  A    between atoms: _87  and  _88
REMARK   37  A    between atoms: _90  and  _92
REMARK   38  A    between atoms: _92  and  _93
REMARK   39  A    between atoms: _92  and  _95
REMARK   40  A    between atoms: _97  and  _99
REMARK   41  A    between atoms: _99  and  _100
REMARK   42  A    between atoms: _102  and  _104
REMARK   43  A    between atoms: _104  and  _105
REMARK   44  A    between atoms: _104  and  _107
REMARK   45  A    between atoms: _107  and  _108
REMARK   46  A    between atoms: _110  and  _112
REMARK   47  A    between atoms: _112  and  _113
REMARK   48  A    between atoms: _112  and  _115
REMARK   49  A    between atoms: _115  and  _116
REMARK   50  A    between atoms: _119  and  _121
REMARK   51  A    between atoms: _121  and  _122
REMARK   52  A    between atoms: _121  and  _124
REMARK   53  A    between atoms: _124  and  _125
REMARK   54  A    between atoms: _127  and  _129
REMARK   55  A    between atoms: _129  and  _130
REMARK   56  A    between atoms: _129  and  _132
REMARK   57  A    between atoms: _135  and  _137
REMARK   58  A    between atoms: _137  and  _138
REMARK   59  A    between atoms: _137  and  _140
REMARK   60  A    between atoms: _140  and  _141
REMARK   61  A    between atoms: _143  and  _145
REMARK   62  A    between atoms: _145  and  _146
REMARK   63  A    between atoms: _145  and  _148
REMARK   64  A    between atoms: _148  and  _149
REMARK   65  A    between atoms: _151  and  _153
REMARK   66  A    between atoms: _153  and  _154
REMARK   67  A    between atoms: _153  and  _156
REMARK   68  A    between atoms: _156  and  _157
REMARK   69  A    between atoms: _160  and  _162
REMARK   70  A    between atoms: _162  and  _163
REMARK   71  A    between atoms: _162  and  _165
REMARK   72  A    between atoms: _165  and  _166
REMARK   73  A    between atoms: _166  and  _167
REMARK   74  A    between atoms: _169  and  _171
REMARK   75  A    between atoms: _171  and  _172
REMARK   76  A    between atoms: _171  and  _174
REMARK   77  A    between atoms: _174  and  _175
REMARK   78  A    between atoms: _180  and  _181
REMARK   79  A    between atoms: _183  and  _185
REMARK   80  A    between atoms: _185  and  _186
REMARK   81  A    between atoms: _185  and  _188
REMARK   82  A    between atoms: _188  and  _189
REMARK   83  A    between atoms: _194  and  _195
REMARK   84  A    between atoms: _197  and  _199
REMARK   85  A    between atoms: _199  and  _200
REMARK   86  A    between atoms: _199  and  _202
REMARK   87  A    between atoms: _202  and  _203
REMARK   88  A    between atoms: _206  and  _208
REMARK   89  A    between atoms: _208  and  _209
REMARK   90  A    between atoms: _208  and  _211
REMARK   91  A    between atoms: _214  and  _216
REMARK   92  A    between atoms: _216  and  _217
REMARK   93  A    between atoms: _216  and  _219
REMARK   94  A    between atoms: _222  and  _224
REMARK   95  A    between atoms: _224  and  _225
REMARK   96  A    between atoms: _224  and  _227
REMARK   97  A    between atoms: _227  and  _228
REMARK   98  A    between atoms: _228  and  _229
REMARK   99  A    between atoms: _232  and  _234
REMARK  100  A    between atoms: _234  and  _235
REMARK  101  A    between atoms: _234  and  _237
REMARK  102  A    between atoms: _237  and  _238
REMARK  103  A    between atoms: _238  and  _239
REMARK  104  A    between atoms: _241  and  _243
REMARK  105  A    between atoms: _243  and  _244
REMARK  106  A    between atoms: _243  and  _246
REMARK  107  A    between atoms: _246  and  _247
REMARK  108  A    between atoms: _247  and  _248
REMARK  109  A    between atoms: _251  and  _253
REMARK  110  A    between atoms: _253  and  _254
REMARK  111  A    between atoms: _253  and  _256
REMARK  112  A    between atoms: _256  and  _257
REMARK  113  A    between atoms: _260  and  _262
REMARK  114  A    between atoms: _262  and  _263
REMARK  115  A    between atoms: _262  and  _265
REMARK  116  A    between atoms: _265  and  _266
REMARK  117  A    between atoms: _269  and  _271
REMARK  118  A    between atoms: _271  and  _272
REMARK  119  A    between atoms: _271  and  _274
REMARK  120  A    between atoms: _274  and  _275
REMARK  121  A    between atoms: _278  and  _280
REMARK  122  A    between atoms: _280  and  _281
REMARK  123  A    between atoms: _280  and  _283
REMARK  124  A    between atoms: _286  and  _288
REMARK  125  A    between atoms: _288  and  _289
REMARK  126  A    between atoms: _288  and  _291
REMARK  127  A    between atoms: _291  and  _292
REMARK  128  A    between atoms: _295  and  _297
REMARK  129  A    between atoms: _297  and  _298
REMARK  130  A    between atoms: _300  and  _302
REMARK  131  A    between atoms: _302  and  _303
REMARK  132  A    between atoms: _302  and  _305
REMARK  133  A    between atoms: _308  and  _309
REMARK  134  A    between atoms: _314  and  _316
REMARK  135  A    between atoms: _316  and  _317
REMARK  136  A    between atoms: _316  and  _319
REMARK  137  A    between atoms: _319  and  _320
REMARK  138  A    between atoms: _326  and  _328
REMARK  139  A    between atoms: _328  and  _329
REMARK  140  A    between atoms: _328  and  _331
REMARK  141  A    between atoms: _331  and  _332
REMARK  142  A    between atoms: _332  and  _333
REMARK  143  A    between atoms: _333  and  _334
REMARK  144  A    between atoms: _334  and  _335
REMARK  145  A    between atoms: _339  and  _341
REMARK  146  A    between atoms: _341  and  _342
REMARK  147  A    between atoms: _341  and  _344
REMARK  148  A    between atoms: _344  and  _345
REMARK  149  A    between atoms: _355  and  _357
REMARK  150  A    between atoms: _357  and  _358
REMARK  151  A    between atoms: _357  and  _360
REMARK  152  A    between atoms: _360  and  _361
REMARK  153  A    between atoms: _364  and  _366
REMARK  154  A    between atoms: _366  and  _367
REMARK  155  A    between atoms: _366  and  _369
REMARK  156  A    between atoms: _369  and  _370
REMARK  157  A    between atoms: _376  and  _378
REMARK  158  A    between atoms: _378  and  _379
REMARK  159  A    between atoms: _378  and  _381
REMARK  160  A    between atoms: _381  and  _382
REMARK  161  A    between atoms: _385  and  _387
REMARK  162  A    between atoms: _387  and  _388
REMARK  163  A    between atoms: _387  and  _390
REMARK  164  A    between atoms: _390  and  _391
REMARK  165  A    between atoms: _394  and  _396
REMARK  166  A    between atoms: _396  and  _397
REMARK  167  A    between atoms: _396  and  _399
REMARK  168  A    between atoms: _399  and  _400
REMARK  169  A    between atoms: _400  and  _401
REMARK  170  A    between atoms: _401  and  _402
REMARK  171  A    between atoms: _411  and  _413
REMARK  172  A    between atoms: _413  and  _414
REMARK  173  A    between atoms: _413  and  _416
REMARK  174  A    between atoms: _416  and  _417
REMARK  175  A    between atoms: _422  and  _424
REMARK  176  A    between atoms: _424  and  _425
REMARK  177  A    between atoms: _424  and  _427
REMARK  178  A    between atoms: _427  and  _428
REMARK  179  A    between atoms: _433  and  _435
REMARK  180  A    between atoms: _435  and  _436
REMARK  181  A    between atoms: _435  and  _438
REMARK  182  A    between atoms: _438  and  _439
REMARK  183  A    between atoms: _439  and  _440
REMARK  184  A    between atoms: _440  and  _441
REMARK  185  A    between atoms: _450  and  _452
REMARK  186  A    between atoms: _452  and  _453
REMARK  187  A    between atoms: _452  and  _455
REMARK  188  A    between atoms: _455  and  _456
REMARK  189  A    between atoms: _456  and  _457
REMARK  190  A    between atoms: _460  and  _462
REMARK  191  A    between atoms: _462  and  _463
REMARK  192  A    between atoms: _462  and  _465
REMARK  193  A    between atoms: _465  and  _466
REMARK  194  A    between atoms: _471  and  _472
REMARK  195  A    between atoms: _474  and  _476
REMARK  196  A    between atoms: _476  and  _477
REMARK  197  A    between atoms: _480  and  _482
REMARK  198  A    between atoms: _482  and  _483
REMARK  199  A    between atoms: _485  and  _487
REMARK  200  A    between atoms: _487  and  _488
REMARK  201  A    between atoms: _491  and  _493
REMARK  202  A    between atoms: _493  and  _494
REMARK  203  A    between atoms: _493  and  _496
REMARK  204  A    between atoms: _499  and  _501
REMARK  205  A    between atoms: _501  and  _502
REMARK  206  A    between atoms: _501  and  _504
REMARK  207  A    between atoms: _506  and  _508
REMARK  208  A    between atoms: _508  and  _509
REMARK  209  A    between atoms: _508  and  _511
REMARK  210  A    between atoms: _511  and  _512
REMARK  211  A    between atoms: _512  and  _513
REMARK                            x       y       z     vdW  Elec       q    Type
REMARK                         _______ _______ _______ _____ _____    ______ ____
ROOT
ATOM      1  CA  ASP A   5      18.307   4.622  92.415  0.00  0.00    +0.160 C 
ENDROOT
BRANCH   1   2
ATOM      2  C   ASP A   5      18.006   4.611  93.911  0.00  0.00    +0.241 C 
ATOM      3  N   MET A   6      17.872   5.790  94.517  0.00  0.00    -0.297 N 
ATOM      4  H   MET A   6      17.976   6.667  93.967  0.00  0.00    +0.150 HD
ATOM      5  O   ASP A   5      17.895   3.545  94.511  0.00  0.00    -0.273 OA
BRANCH   3   6
ATOM      6  CA  MET A   6      17.580   5.862  95.945  0.00  0.00    +0.149 C 
BRANCH   6   7
ATOM      7  C   MET A   6      16.115   6.188  96.233  0.00  0.00    +0.241 C 
ATOM      8  N   TYR A   7      15.406   5.230  96.826  0.00  0.00    -0.297 N 
ATOM      9  H   TYR A   7      15.865   4.324  97.053  0.00  0.00    +0.150 HD
ATOM     10  O   MET A   6      15.636   7.282  95.924  0.00  0.00    -0.273 OA
BRANCH   8  11
ATOM     11  CA  TYR A   7      14.000   5.422  97.165  0.00  0.00    +0.153 C 
BRANCH  11  12
ATOM     12  C   TYR A   7      13.882   5.940  98.598  0.00  0.00    +0.241 C 
ATOM     13  N   TYR A   8      14.508   5.236  99.543  0.00  0.00    -0.298 N 
ATOM     14  H   TYR A   8      15.016   4.369  99.275  0.00  0.00    +0.150 HD
ATOM     15  O   TYR A   7      13.227   6.952  98.841  0.00  0.00    -0.273 OA
BRANCH  13  16
ATOM     16  CA  TYR A   8      14.500   5.650 100.946  0.00  0.00    +0.141 C 
BRANCH  16  17
ATOM     17  C   TYR A   8      15.853   6.296 101.256  0.00  0.00    +0.227 C 
ATOM     18  O   TYR A   8      16.864   5.609 101.372  0.00  0.00    -0.286 OA
ENDBRANCH  16  17
BRANCH  16  19
ATOM     19  CB  TYR A   8      14.291   4.449 101.884  0.00  0.00    +0.054 C 
BRANCH  19  20
ATOM     20  CG  TYR A   8      12.955   3.747 101.743  0.00  0.00    -0.020 A 
ATOM     21  CD2 TYR A   8      11.774   4.355 102.174  0.00  0.00    -0.001 A 
ATOM     22  CE2 TYR A   8      10.543   3.706 102.058  0.00  0.00    +0.036 A 
ATOM     23  CZ  TYR A   8      10.490   2.434 101.504  0.00  0.00    +0.134 A 
ATOM     24  CE1 TYR A   8      11.650   1.811 101.068  0.00  0.00    +0.036 A 
ATOM     25  CD1 TYR A   8      12.872   2.468 101.189  0.00  0.00    -0.001 A 
BRANCH  23  26
ATOM     26  OH  TYR A   8       9.281   1.778 101.393  0.00  0.00    -0.506 OA
ATOM     27  HH  TYR A   8       9.425   0.890 100.979  0.00  0.00    +0.292 HD
ENDBRANCH  23  26
ENDBRANCH  19  20
ENDBRANCH  16  19
ENDBRANCH  13  16
ENDBRANCH  11  12
BRANCH  11  28
ATOM     28  CB  TYR A   7      13.237   4.109  97.015  0.00  0.00    +0.055 C 
BRANCH  28  29
ATOM     29  CG  TYR A   7      11.741   4.249  97.192  0.00  0.00    -0.020 A 
ATOM     30  CD2 TYR A   7      11.116   3.763  98.335  0.00  0.00    -0.001 A 
ATOM     31  CE2 TYR A   7       9.733   3.849  98.498  0.00  0.00    +0.036 A 
ATOM     32  CZ  TYR A   7       8.957   4.430  97.510  0.00  0.00    +0.134 A 
ATOM     33  CE1 TYR A   7       9.554   4.934  96.355  0.00  0.00    +0.036 A 
ATOM     34  CD1 TYR A   7      10.948   4.838  96.204  0.00  0.00    -0.001 A 
BRANCH  32  35
ATOM     35  OH  TYR A   7       7.588   4.489  97.681  0.00  0.00    -0.506 OA
ATOM     36  HH  TYR A   7       7.177   4.929  96.895  0.00  0.00    +0.292 HD
ENDBRANCH  32  35
ENDBRANCH  28  29
ENDBRANCH  11  28
ENDBRANCH   8  11
ENDBRANCH   6   7
BRANCH   6  37
ATOM     37  CB  MET A   6      18.480   6.893  96.634  0.00  0.00    +0.041 C 
BRANCH  37  38
ATOM     38  CG  MET A   6      18.274   6.983  98.144  0.00  0.00    +0.060 C 
BRANCH  38  39
ATOM     39  SD  MET A   6      19.568   7.915  98.989  0.00  0.00    -0.139 S 
ATOM     40  CE  MET A   6      19.188   9.626  98.499  0.00  0.00    +0.069 C 
ENDBRANCH  38  39
ENDBRANCH  37  38
ENDBRANCH   6  37
ENDBRANCH   3   6
ENDBRANCH   1   2
BRANCH   1  43
ATOM     41  C   SER A   4      16.991   6.505  91.596  0.00  0.00    +0.243 C 
ATOM     42  O   SER A   4      15.916   5.963  91.873  0.00  0.00    -0.273 OA
ATOM     43  N   ASP A   5      18.174   5.948  91.827  0.00  0.00    -0.296 N 
ATOM     44  H   ASP A   5      19.035   6.476  91.580  0.00  0.00    +0.150 HD
BRANCH  41  45
ATOM     45  CA  SER A   4      17.037   7.895  90.978  0.00  0.00    +0.178 C 
BRANCH  45  47
ATOM     46  C   SER A   3      16.414   8.246  88.638  0.00  0.00    +0.243 C 
ATOM     47  N   SER A   4      16.058   8.109  89.914  0.00  0.00    -0.295 N 
ATOM     48  H   SER A   4      15.049   8.156  90.162  0.00  0.00    +0.150 HD
ATOM     49  O   SER A   3      17.584   8.187  88.250  0.00  0.00    -0.273 OA
BRANCH  46  50
ATOM     50  CA  SER A   3      15.280   8.505  87.648  0.00  0.00    +0.178 C 
BRANCH  50  53
ATOM     51  C   VAL A   2      14.332  10.698  88.117  0.00  0.00    +0.241 C 
ATOM     52  O   VAL A   2      13.469  10.214  88.844  0.00  0.00    -0.273 OA
ATOM     53  N   SER A   3      15.220   9.952  87.465  0.00  0.00    -0.295 N 
ATOM     54  H   SER A   3      15.886  10.410  86.811  0.00  0.00    +0.150 HD
BRANCH  51  55
ATOM     55  CA  VAL A   2      14.384  12.210  87.889  0.00  0.00    +0.148 C 
BRANCH  55  57
ATOM     56  C   SER A   1      13.047  12.558  85.909  0.00  0.00    +0.241 C 
ATOM     57  N   VAL A   2      13.131  12.532  87.232  0.00  0.00    -0.297 N 
ATOM     58  H   VAL A   2      12.290  12.745  87.805  0.00  0.00    +0.150 HD
ATOM     59  O   SER A   1      14.021  12.390  85.180  0.00  0.00    -0.274 OA
BRANCH  56  60
ATOM     60  CA  SER A   1      11.668  12.839  85.318  0.00  0.00    +0.174 C 
BRANCH  60  61
ATOM     61  N   SER A   1      11.788  13.701  84.151  0.00  0.00    -0.236 NA
ATOM     62  H   SER A   1      12.202  13.322  83.276  0.00  0.00    +0.142 HD
ENDBRANCH  60  61
BRANCH  60  63
ATOM     63  CB  SER A   1      11.017  11.505  84.943  0.00  0.00    +0.163 C 
BRANCH  63  64
ATOM     64  OG  SER A   1      11.108  10.592  86.025  0.00  0.00    -0.380 OA
ATOM     65  H   SER A   1      10.684   9.735  85.769  0.00  0.00    +0.211 HD
ENDBRANCH  63  64
ENDBRANCH  60  63
ENDBRANCH  56  60
ENDBRANCH  55  57
BRANCH  55  66
ATOM     66  CB  VAL A   2      14.514  12.913  89.266  0.00  0.00    +0.027 C 
ATOM     67  CG2 VAL A   2      15.782  12.437  89.980  0.00  0.00    +0.002 C 
ATOM     68  CG1 VAL A   2      14.563  14.417  89.091  0.00  0.00    +0.002 C 
ENDBRANCH  55  66
ENDBRANCH  51  55
ENDBRANCH  50  53
BRANCH  50  69
ATOM     69  CB  SER A   3      15.571   7.797  86.323  0.00  0.00    +0.166 C 
BRANCH  69  70
ATOM     70  OG  SER A   3      14.559   8.055  85.366  0.00  0.00    -0.380 OA
ATOM     71  H   SER A   3      13.690   7.731  85.711  0.00  0.00    +0.211 HD
ENDBRANCH  69  70
ENDBRANCH  50  69
ENDBRANCH  46  50
ENDBRANCH  45  47
BRANCH  45  72
ATOM     72  CB  SER A   4      16.840   8.931  92.082  0.00  0.00    +0.166 C 
BRANCH  72  73
ATOM     73  OG  SER A   4      17.662   8.652  93.200  0.00  0.00    -0.380 OA
ATOM     74  H   SER A   4      18.612   8.664  92.921  0.00  0.00    +0.211 HD
ENDBRANCH  72  73
ENDBRANCH  45  72
ENDBRANCH  41  45
ENDBRANCH   1  43
BRANCH   1  75
ATOM     75  CB  ASP A   5      19.718   4.085  92.167  0.00  0.00    +0.143 C 
BRANCH  75  76
ATOM     76  CG  ASP A   5      19.866   3.420  90.805  0.00  0.00    +0.367 C 
ATOM     77  OD2 ASP A   5      20.852   2.680  90.622  0.00  0.00    -0.246 OA
ATOM     78  OD1 ASP A   5      19.012   3.634  89.916  0.00  0.00    -0.246 OA
ENDBRANCH  75  76
ENDBRANCH   1  75
TORSDOF 34
REMARK  Name = ../refined-set-2016/1q1g/1q1g_pocket.pdb
REMARK  211 active torsions:
REMARK  status: ('A' for Active; 'I' for Inactive)
REMARK    1  A    between atoms: _1  and  _3
REMARK    2  A    between atoms: _3  and  _4
REMARK    3  A    between atoms: _3  and  _6
REMARK    4  A    between atoms: _9  and  _11
REMARK    5  A    between atoms: _11  and  _12
REMARK    6  A    between atoms: _14  and  _16
REMARK    7  A    between atoms: _16  and  _17
REMARK    8  A    between atoms: _16  and  _19
REMARK    9  A    between atoms: _19  and  _20
REMARK   10  A    between atoms: _23  and  _25
REMARK   11  A    between atoms: _25  and  _26
REMARK   12  A    between atoms: _25  and  _28
REMARK   13  A    between atoms: _28  and  _29
REMARK   14  A    between atoms: _34  and  _36
REMARK   15  A    between atoms: _36  and  _37
REMARK   16  A    between atoms: _39  and  _41
REMARK   17  A    between atoms: _41  and  _42
REMARK   18  A    between atoms: _41  and  _44
REMARK   19  A    between atoms: _47  and  _49
REMARK   20  A    between atoms: _49  and  _50
REMARK   21  A    between atoms: _52  and  _54
REMARK   22  A    between atoms: _54  and  _55
REMARK   23  A    between atoms: _54  and  _57
REMARK   24  A    between atoms: _57  and  _58
REMARK   25  A    between atoms: _60  and  _62
REMARK   26  A    between atoms: _62  and  _63
REMARK   27  A    between atoms: _62  and  _65
REMARK   28  A    between atoms: _65  and  _66
REMARK   29  A    between atoms: _66  and  _67
REMARK   30  A    between atoms: _67  and  _68
REMARK   31  A    between atoms: _77  and  _79
REMARK   32  A    between atoms: _79  and  _80
REMARK   33  A    between atoms: _82  and  _84
REMARK   34  A    between atoms: _84  and  _85
REMARK   35  A    between atoms: _84  and  _87
REMARK   36  A    between atoms: _87  and  _88
REMARK   37  A    between atoms: _90  and  _92
REMARK   38  A    between atoms: _92  and  _93
REMARK   39  A    between atoms: _92  and  _95
REMARK   40  A    between atoms: _97  and  _99
REMARK   41  A    between atoms: _99  and  _100
REMARK   42  A    between atoms: _102  and  _104
REMARK   43  A    between atoms: _104  and  _105
REMARK   44  A    between atoms: _104  and  _107
REMARK   45  A    between atoms: _107  and  _108
REMARK   46  A    between atoms: _110  and  _112
REMARK   47  A    between atoms: _112  and  _113
REMARK   48  A    between atoms: _112  and  _115
REMARK   49  A    between atoms: _115  and  _116
REMARK   50  A    between atoms: _119  and  _121
REMARK   51  A    between atoms: _121  and  _122
REMARK   52  A    between atoms: _121  and  _124
REMARK   53  A    between atoms: _124  and  _125
REMARK   54  A    between atoms: _127  and  _129
REMARK   55  A    between atoms: _129  and  _130
REMARK   56  A    between atoms: _129  and  _132
REMARK   57  A    between atoms: _135  and  _137
REMARK   58  A    between atoms: _137  and  _138
REMARK   59  A    between atoms: _137  and  _140
REMARK   60  A    between atoms: _140  and  _141
REMARK   61  A    between atoms: _143  and  _145
REMARK   62  A    between atoms: _145  and  _146
REMARK   63  A    between atoms: _145  and  _148
REMARK   64  A    between atoms: _148  and  _149
REMARK   65  A    between atoms: _151  and  _153
REMARK   66  A    between atoms: _153  and  _154
REMARK   67  A    between atoms: _153  and  _156
REMARK   68  A    between atoms: _156  and  _157
REMARK   69  A    between atoms: _160  and  _162
REMARK   70  A    between atoms: _162  and  _163
REMARK   71  A    between atoms: _162  and  _165
REMARK   72  A    between atoms: _165  and  _166
REMARK   73  A    between atoms: _166  and  _167
REMARK   74  A    between atoms: _169  and  _171
REMARK   75  A    between atoms: _171  and  _172
REMARK   76  A    between atoms: _171  and  _174
REMARK   77  A    between atoms: _174  and  _175
REMARK   78  A    between atoms: _180  and  _181
REMARK   79  A    between atoms: _183  and  _185
REMARK   80  A    between atoms: _185  and  _186
REMARK   81  A    between atoms: _185  and  _188
REMARK   82  A    between atoms: _188  and  _189
REMARK   83  A    between atoms: _194  and  _195
REMARK   84  A    between atoms: _197  and  _199
REMARK   85  A    between atoms: _199  and  _200
REMARK   86  A    between atoms: _199  and  _202
REMARK   87  A    between atoms: _202  and  _203
REMARK   88  A    between atoms: _206  and  _208
REMARK   89  A    between atoms: _208  and  _209
REMARK   90  A    between atoms: _208  and  _211
REMARK   91  A    between atoms: _214  and  _216
REMARK   92  A    between atoms: _216  and  _217
REMARK   93  A    between atoms: _216  and  _219
REMARK   94  A    between atoms: _222  and  _224
REMARK   95  A    between atoms: _224  and  _225
REMARK   96  A    between atoms: _224  and  _227
REMARK   97  A    between atoms: _227  and  _228
REMARK   98  A    between atoms: _228  and  _229
REMARK   99  A    between atoms: _232  and  _234
REMARK  100  A    between atoms: _234  and  _235
REMARK  101  A    between atoms: _234  and  _237
REMARK  102  A    between atoms: _237  and  _238
REMARK  103  A    between atoms: _238  and  _239
REMARK  104  A    between atoms: _241  and  _243
REMARK  105  A    between atoms: _243  and  _244
REMARK  106  A    between atoms: _243  and  _246
REMARK  107  A    between atoms: _246  and  _247
REMARK  108  A    between atoms: _247  and  _248
REMARK  109  A    between atoms: _251  and  _253
REMARK  110  A    between atoms: _253  and  _254
REMARK  111  A    between atoms: _253  and  _256
REMARK  112  A    between atoms: _256  and  _257
REMARK  113  A    between atoms: _260  and  _262
REMARK  114  A    between atoms: _262  and  _263
REMARK  115  A    between atoms: _262  and  _265
REMARK  116  A    between atoms: _265  and  _266
REMARK  117  A    between atoms: _269  and  _271
REMARK  118  A    between atoms: _271  and  _272
REMARK  119  A    between atoms: _271  and  _274
REMARK  120  A    between atoms: _274  and  _275
REMARK  121  A    between atoms: _278  and  _280
REMARK  122  A    between atoms: _280  and  _281
REMARK  123  A    between atoms: _280  and  _283
REMARK  124  A    between atoms: _286  and  _288
REMARK  125  A    between atoms: _288  and  _289
REMARK  126  A    between atoms: _288  and  _291
REMARK  127  A    between atoms: _291  and  _292
REMARK  128  A    between atoms: _295  and  _297
REMARK  129  A    between atoms: _297  and  _298
REMARK  130  A    between atoms: _300  and  _302
REMARK  131  A    between atoms: _302  and  _303
REMARK  132  A    between atoms: _302  and  _305
REMARK  133  A    between atoms: _308  and  _309
REMARK  134  A    between atoms: _314  and  _316
REMARK  135  A    between atoms: _316  and  _317
REMARK  136  A    between atoms: _316  and  _319
REMARK  137  A    between atoms: _319  and  _320
REMARK  138  A    between atoms: _326  and  _328
REMARK  139  A    between atoms: _328  and  _329
REMARK  140  A    between atoms: _328  and  _331
REMARK  141  A    between atoms: _331  and  _332
REMARK  142  A    between atoms: _332  and  _333
REMARK  143  A    between atoms: _333  and  _334
REMARK  144  A    between atoms: _334  and  _335
REMARK  145  A    between atoms: _339  and  _341
REMARK  146  A    between atoms: _341  and  _342
REMARK  147  A    between atoms: _341  and  _344
REMARK  148  A    between atoms: _344  and  _345
REMARK  149  A    between atoms: _355  and  _357
REMARK  150  A    between atoms: _357  and  _358
REMARK  151  A    between atoms: _357  and  _360
REMARK  152  A    between atoms: _360  and  _361
REMARK  153  A    between atoms: _364  and  _366
REMARK  154  A    between atoms: _366  and  _367
REMARK  155  A    between atoms: _366  and  _369
REMARK  156  A    between atoms: _369  and  _370
REMARK  157  A    between atoms: _376  and  _378
REMARK  158  A    between atoms: _378  and  _379
REMARK  159  A    between atoms: _378  and  _381
REMARK  160  A    between atoms: _381  and  _382
REMARK  161  A    between atoms: _385  and  _387
REMARK  162  A    between atoms: _387  and  _388
REMARK  163  A    between atoms: _387  and  _390
REMARK  164  A    between atoms: _390  and  _391
REMARK  165  A    between atoms: _394  and  _396
REMARK  166  A    between atoms: _396  and  _397
REMARK  167  A    between atoms: _396  and  _399
REMARK  168  A    between atoms: _399  and  _400
REMARK  169  A    between atoms: _400  and  _401
REMARK  170  A    between atoms: _401  and  _402
REMARK  171  A    between atoms: _411  and  _413
REMARK  172  A    between atoms: _413  and  _414
REMARK  173  A    between atoms: _413  and  _416
REMARK  174  A    between atoms: _416  and  _417
REMARK  175  A    between atoms: _422  and  _424
REMARK  176  A    between atoms: _424  and  _425
REMARK  177  A    between atoms: _424  and  _427
REMARK  178  A    between atoms: _427  and  _428
REMARK  179  A    between atoms: _433  and  _435
REMARK  180  A    between atoms: _435  and  _436
REMARK  181  A    between atoms: _435  and  _438
REMARK  182  A    between atoms: _438  and  _439
REMARK  183  A    between atoms: _439  and  _440
REMARK  184  A    between atoms: _440  and  _441
REMARK  185  A    between atoms: _450  and  _452
REMARK  186  A    between atoms: _452  and  _453
REMARK  187  A    between atoms: _452  and  _455
REMARK  188  A    between atoms: _455  and  _456
REMARK  189  A    between atoms: _456  and  _457
REMARK  190  A    between atoms: _460  and  _462
REMARK  191  A    between atoms: _462  and  _463
REMARK  192  A    between atoms: _462  and  _465
REMARK  193  A    between atoms: _465  and  _466
REMARK  194  A    between atoms: _471  and  _472
REMARK  195  A    between atoms: _474  and  _476
REMARK  196  A    between atoms: _476  and  _477
REMARK  197  A    between atoms: _480  and  _482
REMARK  198  A    between atoms: _482  and  _483
REMARK  199  A    between atoms: _485  and  _487
REMARK  200  A    between atoms: _487  and  _488
REMARK  201  A    between atoms: _491  and  _493
REMARK  202  A    between atoms: _493  and  _494
REMARK  203  A    between atoms: _493  and  _496
REMARK  204  A    between atoms: _499  and  _501
REMARK  205  A    between atoms: _501  and  _502
REMARK  206  A    between atoms: _501  and  _504
REMARK  207  A    between atoms: _506  and  _508
REMARK  208  A    between atoms: _508  and  _509
REMARK  209  A    between atoms: _508  and  _511
REMARK  210  A    between atoms: _511  and  _512
REMARK  211  A    between atoms: _512  and  _513
REMARK                            x       y       z     vdW  Elec       q    Type
REMARK                         _______ _______ _______ _____ _____    ______ ____
ROOT
ATOM      1  CA  LEU A   1      15.600  15.954  94.700  0.00  0.00    +0.133 C 
ENDROOT
BRANCH   1   2
ATOM      2  N   LEU A   1      16.977  15.685  95.099  0.00  0.00    -0.239 NA
ATOM      3  H   LEU A   1      17.168  15.034  95.887  0.00  0.00    +0.142 HD
ENDBRANCH   1   2
BRANCH   1   4
ATOM      4  C   LEU A   1      15.213  17.430  94.741  0.00  0.00    +0.224 C 
ATOM      5  O   LEU A   1      14.582  17.928  93.814  0.00  0.00    -0.287 OA
ENDBRANCH   1   4
BRANCH   1   6
ATOM      6  CB  LEU A   1      14.621  15.128  95.542  0.00  0.00    +0.025 C 
BRANCH   6   7
ATOM      7  CG  LEU A   1      14.654  13.622  95.236  0.00  0.00    +0.002 C 
ATOM      8  CD2 LEU A   1      13.457  12.945  95.887  0.00  0.00    +0.000 C 
ATOM      9  CD1 LEU A   1      14.628  13.387  93.735  0.00  0.00    +0.000 C 
ENDBRANCH   6   7
ENDBRANCH   1   6
TORSDOF 4
REMARK  Name = ../refined-set-2016/1q1g/1q1g_pocket.pdb
REMARK  211 active torsions:
REMARK  status: ('A' for Active; 'I' for Inactive)
REMARK    1  A    between atoms: _1  and  _3
REMARK    2  A    between atoms: _3  and  _4
REMARK    3  A    between atoms: _3  and  _6
REMARK    4  A    between atoms: _9  and  _11
REMARK    5  A    between atoms: _11  and  _12
REMARK    6  A    between atoms: _14  and  _16
REMARK    7  A    between atoms: _16  and  _17
REMARK    8  A    between atoms: _16  and  _19
REMARK    9  A    between atoms: _19  and  _20
REMARK   10  A    between atoms: _23  and  _25
REMARK   11  A    between atoms: _25  and  _26
REMARK   12  A    between atoms: _25  and  _28
REMARK   13  A    between atoms: _28  and  _29
REMARK   14  A    between atoms: _34  and  _36
REMARK   15  A    between atoms: _36  and  _37
REMARK   16  A    between atoms: _39  and  _41
REMARK   17  A    between atoms: _41  and  _42
REMARK   18  A    between atoms: _41  and  _44
REMARK   19  A    between atoms: _47  and  _49
REMARK   20  A    between atoms: _49  and  _50
REMARK   21  A    between atoms: _52  and  _54
REMARK   22  A    between atoms: _54  and  _55
REMARK   23  A    between atoms: _54  and  _57
REMARK   24  A    between atoms: _57  and  _58
REMARK   25  A    between atoms: _60  and  _62
REMARK   26  A    between atoms: _62  and  _63
REMARK   27  A    between atoms: _62  and  _65
REMARK   28  A    between atoms: _65  and  _66
REMARK   29  A    between atoms: _66  and  _67
REMARK   30  A    between atoms: _67  and  _68
REMARK   31  A    between atoms: _77  and  _79
REMARK   32  A    between atoms: _79  and  _80
REMARK   33  A    between atoms: _82  and  _84
REMARK   34  A    between atoms: _84  and  _85
REMARK   35  A    between atoms: _84  and  _87
REMARK   36  A    between atoms: _87  and  _88
REMARK   37  A    between atoms: _90  and  _92
REMARK   38  A    between atoms: _92  and  _93
REMARK   39  A    between atoms: _92  and  _95
REMARK   40  A    between atoms: _97  and  _99
REMARK   41  A    between atoms: _99  and  _100
REMARK   42  A    between atoms: _102  and  _104
REMARK   43  A    between atoms: _104  and  _105
REMARK   44  A    between atoms: _104  and  _107
REMARK   45  A    between atoms: _107  and  _108
REMARK   46  A    between atoms: _110  and  _112
REMARK   47  A    between atoms: _112  and  _113
REMARK   48  A    between atoms: _112  and  _115
REMARK   49  A    between atoms: _115  and  _116
REMARK   50  A    between atoms: _119  and  _121
REMARK   51  A    between atoms: _121  and  _122
REMARK   52  A    between atoms: _121  and  _124
REMARK   53  A    between atoms: _124  and  _125
REMARK   54  A    between atoms: _127  and  _129
REMARK   55  A    between atoms: _129  and  _130
REMARK   56  A    between atoms: _129  and  _132
REMARK   57  A    between atoms: _135  and  _137
REMARK   58  A    between atoms: _137  and  _138
REMARK   59  A    between atoms: _137  and  _140
REMARK   60  A    between atoms: _140  and  _141
REMARK   61  A    between atoms: _143  and  _145
REMARK   62  A    between atoms: _145  and  _146
REMARK   63  A    between atoms: _145  and  _148
REMARK   64  A    between atoms: _148  and  _149
REMARK   65  A    between atoms: _151  and  _153
REMARK   66  A    between atoms: _153  and  _154
REMARK   67  A    between atoms: _153  and  _156
REMARK   68  A    between atoms: _156  and  _157
REMARK   69  A    between atoms: _160  and  _162
REMARK   70  A    between atoms: _162  and  _163
REMARK   71  A    between atoms: _162  and  _165
REMARK   72  A    between atoms: _165  and  _166
REMARK   73  A    between atoms: _166  and  _167
REMARK   74  A    between atoms: _169  and  _171
REMARK   75  A    between atoms: _171  and  _172
REMARK   76  A    between atoms: _171  and  _174
REMARK   77  A    between atoms: _174  and  _175
REMARK   78  A    between atoms: _180  and  _181
REMARK   79  A    between atoms: _183  and  _185
REMARK   80  A    between atoms: _185  and  _186
REMARK   81  A    between atoms: _185  and  _188
REMARK   82  A    between atoms: _188  and  _189
REMARK   83  A    between atoms: _194  and  _195
REMARK   84  A    between atoms: _197  and  _199
REMARK   85  A    between atoms: _199  and  _200
REMARK   86  A    between atoms: _199  and  _202
REMARK   87  A    between atoms: _202  and  _203
REMARK   88  A    between atoms: _206  and  _208
REMARK   89  A    between atoms: _208  and  _209
REMARK   90  A    between atoms: _208  and  _211
REMARK   91  A    between atoms: _214  and  _216
REMARK   92  A    between atoms: _216  and  _217
REMARK   93  A    between atoms: _216  and  _219
REMARK   94  A    between atoms: _222  and  _224
REMARK   95  A    between atoms: _224  and  _225
REMARK   96  A    between atoms: _224  and  _227
REMARK   97  A    between atoms: _227  and  _228
REMARK   98  A    between atoms: _228  and  _229
REMARK   99  A    between atoms: _232  and  _234
REMARK  100  A    between atoms: _234  and  _235
REMARK  101  A    between atoms: _234  and  _237
REMARK  102  A    between atoms: _237  and  _238
REMARK  103  A    between atoms: _238  and  _239
REMARK  104  A    between atoms: _241  and  _243
REMARK  105  A    between atoms: _243  and  _244
REMARK  106  A    between atoms: _243  and  _246
REMARK  107  A    between atoms: _246  and  _247
REMARK  108  A    between atoms: _247  and  _248
REMARK  109  A    between atoms: _251  and  _253
REMARK  110  A    between atoms: _253  and  _254
REMARK  111  A    between atoms: _253  and  _256
REMARK  112  A    between atoms: _256  and  _257
REMARK  113  A    between atoms: _260  and  _262
REMARK  114  A    between atoms: _262  and  _263
REMARK  115  A    between atoms: _262  and  _265
REMARK  116  A    between atoms: _265  and  _266
REMARK  117  A    between atoms: _269  and  _271
REMARK  118  A    between atoms: _271  and  _272
REMARK  119  A    between atoms: _271  and  _274
REMARK  120  A    between atoms: _274  and  _275
REMARK  121  A    between atoms: _278  and  _280
REMARK  122  A    between atoms: _280  and  _281
REMARK  123  A    between atoms: _280  and  _283
REMARK  124  A    between atoms: _286  and  _288
REMARK  125  A    between atoms: _288  and  _289
REMARK  126  A    between atoms: _288  and  _291
REMARK  127  A    between atoms: _291  and  _292
REMARK  128  A    between atoms: _295  and  _297
REMARK  129  A    between atoms: _297  and  _298
REMARK  130  A    between atoms: _300  and  _302
REMARK  131  A    between atoms: _302  and  _303
REMARK  132  A    between atoms: _302  and  _305
REMARK  133  A    between atoms: _308  and  _309
REMARK  134  A    between atoms: _314  and  _316
REMARK  135  A    between atoms: _316  and  _317
REMARK  136  A    between atoms: _316  and  _319
REMARK  137  A    between atoms: _319  and  _320
REMARK  138  A    between atoms: _326  and  _328
REMARK  139  A    between atoms: _328  and  _329
REMARK  140  A    between atoms: _328  and  _331
REMARK  141  A    between atoms: _331  and  _332
REMARK  142  A    between atoms: _332  and  _333
REMARK  143  A    between atoms: _333  and  _334
REMARK  144  A    between atoms: _334  and  _335
REMARK  145  A    between atoms: _339  and  _341
REMARK  146  A    between atoms: _341  and  _342
REMARK  147  A    between atoms: _341  and  _344
REMARK  148  A    between atoms: _344  and  _345
REMARK  149  A    between atoms: _355  and  _357
REMARK  150  A    between atoms: _357  and  _358
REMARK  151  A    between atoms: _357  and  _360
REMARK  152  A    between atoms: _360  and  _361
REMARK  153  A    between atoms: _364  and  _366
REMARK  154  A    between atoms: _366  and  _367
REMARK  155  A    between atoms: _366  and  _369
REMARK  156  A    between atoms: _369  and  _370
REMARK  157  A    between atoms: _376  and  _378
REMARK  158  A    between atoms: _378  and  _379
REMARK  159  A    between atoms: _378  and  _381
REMARK  160  A    between atoms: _381  and  _382
REMARK  161  A    between atoms: _385  and  _387
REMARK  162  A    between atoms: _387  and  _388
REMARK  163  A    between atoms: _387  and  _390
REMARK  164  A    between atoms: _390  and  _391
REMARK  165  A    between atoms: _394  and  _396
REMARK  166  A    between atoms: _396  and  _397
REMARK  167  A    between atoms: _396  and  _399
REMARK  168  A    between atoms: _399  and  _400
REMARK  169  A    between atoms: _400  and  _401
REMARK  170  A    between atoms: _401  and  _402
REMARK  171  A    between atoms: _411  and  _413
REMARK  172  A    between atoms: _413  and  _414
REMARK  173  A    between atoms: _413  and  _416
REMARK  174  A    between atoms: _416  and  _417
REMARK  175  A    between atoms: _422  and  _424
REMARK  176  A    between atoms: _424  and  _425
REMARK  177  A    between atoms: _424  and  _427
REMARK  178  A    between atoms: _427  and  _428
REMARK  179  A    between atoms: _433  and  _435
REMARK  180  A    between atoms: _435  and  _436
REMARK  181  A    between atoms: _435  and  _438
REMARK  182  A    between atoms: _438  and  _439
REMARK  183  A    between atoms: _439  and  _440
REMARK  184  A    between atoms: _440  and  _441
REMARK  185  A    between atoms: _450  and  _452
REMARK  186  A    between atoms: _452  and  _453
REMARK  187  A    between atoms: _452  and  _455
REMARK  188  A    between atoms: _455  and  _456
REMARK  189  A    between atoms: _456  and  _457
REMARK  190  A    between atoms: _460  and  _462
REMARK  191  A    between atoms: _462  and  _463
REMARK  192  A    between atoms: _462  and  _465
REMARK  193  A    between atoms: _465  and  _466
REMARK  194  A    between atoms: _471  and  _472
REMARK  195  A    between atoms: _474  and  _476
REMARK  196  A    between atoms: _476  and  _477
REMARK  197  A    between atoms: _480  and  _482
REMARK  198  A    between atoms: _482  and  _483
REMARK  199  A    between atoms: _485  and  _487
REMARK  200  A    between atoms: _487  and  _488
REMARK  201  A    between atoms: _491  and  _493
REMARK  202  A    between atoms: _493  and  _494
REMARK  203  A    between atoms: _493  and  _496
REMARK  204  A    between atoms: _499  and  _501
REMARK  205  A    between atoms: _501  and  _502
REMARK  206  A    between atoms: _501  and  _504
REMARK  207  A    between atoms: _506  and  _508
REMARK  208  A    between atoms: _508  and  _509
REMARK  209  A    between atoms: _508  and  _511
REMARK  210  A    between atoms: _511  and  _512
REMARK  211  A    between atoms: _512  and  _513
REMARK                            x       y       z     vdW  Elec       q    Type
REMARK                         _______ _______ _______ _____ _____    ______ ____
ROOT
ATOM      1  C   GLU A   3      12.115   6.742  89.512  0.00  0.00    +0.241 C 
ATOM      2  O   GLU A   3      13.165   7.312  89.824  0.00  0.00    -0.273 OA
ATOM      3  N   MET A   4      12.097   5.473  89.124  0.00  0.00    -0.297 N 
ATOM      4  H   MET A   4      11.214   5.035  88.791  0.00  0.00    +0.150 HD
ENDROOT
BRANCH   3   5
ATOM      5  CA  MET A   4      13.336   4.700  89.171  0.00  0.00    +0.149 C 
BRANCH   5   6
ATOM      6  C   MET A   4      13.825   3.949  87.933  0.00  0.00    +0.241 C 
ATOM      7  O   MET A   4      14.836   3.243  88.017  0.00  0.00    -0.273 OA
ATOM      8  N   GLU A   5      13.158   4.080  86.790  0.00  0.00    -0.297 N 
ATOM      9  H   GLU A   5      12.328   4.704  86.727  0.00  0.00    +0.150 HD
BRANCH   8  10
ATOM     10  CA  GLU A   5      13.617   3.327  85.622  0.00  0.00    +0.149 C 
BRANCH  10  11
ATOM     11  C   GLU A   5      13.684   4.053  84.268  0.00  0.00    +0.241 C 
ATOM     12  N   LEU A   6      13.042   5.207  84.145  0.00  0.00    -0.298 N 
ATOM     13  H   LEU A   6      12.559   5.624  84.966  0.00  0.00    +0.150 HD
ATOM     14  O   GLU A   5      14.324   3.560  83.336  0.00  0.00    -0.273 OA
BRANCH  12  15
ATOM     15  CA  LEU A   6      13.014   5.893  82.854  0.00  0.00    +0.137 C 
BRANCH  15  16
ATOM     16  C   LEU A   6      14.359   6.253  82.210  0.00  0.00    +0.227 C 
ATOM     17  O   LEU A   6      14.551   6.014  81.011  0.00  0.00    -0.286 OA
ENDBRANCH  15  16
BRANCH  15  18
ATOM     18  CB  LEU A   6      12.116   7.132  82.942  0.00  0.00    +0.028 C 
BRANCH  18  19
ATOM     19  CG  LEU A   6      11.682   7.716  81.594  0.00  0.00    +0.002 C 
ATOM     20  CD2 LEU A   6      10.719   8.868  81.831  0.00  0.00    +0.000 C 
ATOM     21  CD1 LEU A   6      11.028   6.630  80.729  0.00  0.00    +0.000 C 
ENDBRANCH  18  19
ENDBRANCH  15  18
ENDBRANCH  12  15
ENDBRANCH  10  11
BRANCH  10  22
ATOM     22  CB  GLU A   5      12.745   2.068  85.431  0.00  0.00    +0.041 C 
BRANCH  22  23
ATOM     23  CG  GLU A   5      12.636   1.104  86.625  0.00  0.00    +0.116 C 
BRANCH  23  24
ATOM     24  CD  GLU A   5      11.611   1.533  87.660  0.00  0.00    +0.365 C 
ATOM     25  OE2 GLU A   5      11.661   1.020  88.802  0.00  0.00    -0.246 OA
ATOM     26  OE1 GLU A   5      10.742   2.369  87.337  0.00  0.00    -0.246 OA
ENDBRANCH  23  24
ENDBRANCH  22  23
ENDBRANCH  10  22
ENDBRANCH   8  10
ENDBRANCH   5   6
BRANCH   5  27
ATOM     27  CB  MET A   4      13.245   3.699  90.336  0.00  0.00    +0.041 C 
BRANCH  27  28
ATOM     28  CG  MET A   4      12.975   4.316  91.714  0.00  0.00    +0.060 C 
BRANCH  28  29
ATOM     29  SD  MET A   4      12.688   3.061  93.060  0.00  0.00    -0.139 S 
ATOM     30  CE  MET A   4      14.358   2.419  93.290  0.00  0.00    +0.069 C 
ENDBRANCH  28  29
ENDBRANCH  27  28
ENDBRANCH   5  27
ENDBRANCH   3   5
BRANCH   1  31
ATOM     31  CA  GLU A   3      10.793   7.515  89.552  0.00  0.00    +0.149 C 
BRANCH  31  34
ATOM     32  C   VAL A   2      10.269   9.808  90.133  0.00  0.00    +0.241 C 
ATOM     33  O   VAL A   2       9.215   9.469  90.671  0.00  0.00    -0.273 OA
ATOM     34  N   GLU A   3      11.070   8.945  89.527  0.00  0.00    -0.297 N 
ATOM     35  H   GLU A   3      11.911   9.294  89.025  0.00  0.00    +0.150 HD
BRANCH  32  36
ATOM     36  CA  VAL A   2      10.706  11.270  90.100  0.00  0.00    +0.148 C 
BRANCH  36  38
ATOM     37  C   VAL A   1       9.783  13.130  88.817  0.00  0.00    +0.238 C 
ATOM     38  N   VAL A   2       9.615  12.160  89.716  0.00  0.00    -0.297 N 
ATOM     39  H   VAL A   2       8.681  12.034  90.156  0.00  0.00    +0.150 HD
ATOM     40  O   VAL A   1      10.866  13.363  88.268  0.00  0.00    -0.274 OA
BRANCH  37  41
ATOM     41  CA  VAL A   1       8.541  13.959  88.485  0.00  0.00    +0.145 C 
BRANCH  41  42
ATOM     42  CB  VAL A   1       7.559  13.124  87.634  0.00  0.00    +0.025 C 
ATOM     43  CG2 VAL A   1       6.131  13.491  87.985  0.00  0.00    +0.002 C 
ATOM     44  CG1 VAL A   1       7.825  11.659  87.783  0.00  0.00    +0.002 C 
ENDBRANCH  41  42
BRANCH  41  45
ATOM     45  N   VAL A   1       8.828  15.166  87.732  0.00  0.00    -0.238 NA
ATOM     46  H   VAL A   1       9.495  15.111  86.936  0.00  0.00    +0.142 HD
ENDBRANCH  41  45
ENDBRANCH  37  41
ENDBRANCH  36  38
BRANCH  36  47
ATOM     47  CB  VAL A   2      11.289  11.632  91.499  0.00  0.00    +0.027 C 
ATOM     48  CG2 VAL A   2      10.217  11.497  92.579  0.00  0.00    +0.002 C 
ATOM     49  CG1 VAL A   2      12.476  10.721  91.820  0.00  0.00    +0.002 C 
ENDBRANCH  36  47
ENDBRANCH  32  36
ENDBRANCH  31  34
BRANCH  31  50
ATOM     50  CB  GLU A   3       9.820   7.109  88.433  0.00  0.00    +0.041 C 
BRANCH  50  51
ATOM     51  CG  GLU A   3      10.051   7.739  87.088  0.00  0.00    +0.116 C 
BRANCH  51  52
ATOM     52  CD  GLU A   3      11.139   7.057  86.310  0.00  0.00    +0.365 C 
ATOM     53  OE2 GLU A   3      11.017   5.841  86.044  0.00  0.00    -0.246 OA
ATOM     54  OE1 GLU A   3      12.114   7.745  85.960  0.00  0.00    -0.246 OA
ENDBRANCH  51  52
ENDBRANCH  50  51
ENDBRANCH  31  50
ENDBRANCH   1  31
TORSDOF 25
REMARK  Name = ../refined-set-2016/1q1g/1q1g_pocket.pdb
REMARK  211 active torsions:
REMARK  status: ('A' for Active; 'I' for Inactive)
REMARK    1  A    between atoms: _1  and  _3
REMARK    2  A    between atoms: _3  and  _4
REMARK    3  A    between atoms: _3  and  _6
REMARK    4  A    between atoms: _9  and  _11
REMARK    5  A    between atoms: _11  and  _12
REMARK    6  A    between atoms: _14  and  _16
REMARK    7  A    between atoms: _16  and  _17
REMARK    8  A    between atoms: _16  and  _19
REMARK    9  A    between atoms: _19  and  _20
REMARK   10  A    between atoms: _23  and  _25
REMARK   11  A    between atoms: _25  and  _26
REMARK   12  A    between atoms: _25  and  _28
REMARK   13  A    between atoms: _28  and  _29
REMARK   14  A    between atoms: _34  and  _36
REMARK   15  A    between atoms: _36  and  _37
REMARK   16  A    between atoms: _39  and  _41
REMARK   17  A    between atoms: _41  and  _42
REMARK   18  A    between atoms: _41  and  _44
REMARK   19  A    between atoms: _47  and  _49
REMARK   20  A    between atoms: _49  and  _50
REMARK   21  A    between atoms: _52  and  _54
REMARK   22  A    between atoms: _54  and  _55
REMARK   23  A    between atoms: _54  and  _57
REMARK   24  A    between atoms: _57  and  _58
REMARK   25  A    between atoms: _60  and  _62
REMARK   26  A    between atoms: _62  and  _63
REMARK   27  A    between atoms: _62  and  _65
REMARK   28  A    between atoms: _65  and  _66
REMARK   29  A    between atoms: _66  and  _67
REMARK   30  A    between atoms: _67  and  _68
REMARK   31  A    between atoms: _77  and  _79
REMARK   32  A    between atoms: _79  and  _80
REMARK   33  A    between atoms: _82  and  _84
REMARK   34  A    between atoms: _84  and  _85
REMARK   35  A    between atoms: _84  and  _87
REMARK   36  A    between atoms: _87  and  _88
REMARK   37  A    between atoms: _90  and  _92
REMARK   38  A    between atoms: _92  and  _93
REMARK   39  A    between atoms: _92  and  _95
REMARK   40  A    between atoms: _97  and  _99
REMARK   41  A    between atoms: _99  and  _100
REMARK   42  A    between atoms: _102  and  _104
REMARK   43  A    between atoms: _104  and  _105
REMARK   44  A    between atoms: _104  and  _107
REMARK   45  A    between atoms: _107  and  _108
REMARK   46  A    between atoms: _110  and  _112
REMARK   47  A    between atoms: _112  and  _113
REMARK   48  A    between atoms: _112  and  _115
REMARK   49  A    between atoms: _115  and  _116
REMARK   50  A    between atoms: _119  and  _121
REMARK   51  A    between atoms: _121  and  _122
REMARK   52  A    between atoms: _121  and  _124
REMARK   53  A    between atoms: _124  and  _125
REMARK   54  A    between atoms: _127  and  _129
REMARK   55  A    between atoms: _129  and  _130
REMARK   56  A    between atoms: _129  and  _132
REMARK   57  A    between atoms: _135  and  _137
REMARK   58  A    between atoms: _137  and  _138
REMARK   59  A    between atoms: _137  and  _140
REMARK   60  A    between atoms: _140  and  _141
REMARK   61  A    between atoms: _143  and  _145
REMARK   62  A    between atoms: _145  and  _146
REMARK   63  A    between atoms: _145  and  _148
REMARK   64  A    between atoms: _148  and  _149
REMARK   65  A    between atoms: _151  and  _153
REMARK   66  A    between atoms: _153  and  _154
REMARK   67  A    between atoms: _153  and  _156
REMARK   68  A    between atoms: _156  and  _157
REMARK   69  A    between atoms: _160  and  _162
REMARK   70  A    between atoms: _162  and  _163
REMARK   71  A    between atoms: _162  and  _165
REMARK   72  A    between atoms: _165  and  _166
REMARK   73  A    between atoms: _166  and  _167
REMARK   74  A    between atoms: _169  and  _171
REMARK   75  A    between atoms: _171  and  _172
REMARK   76  A    between atoms: _171  and  _174
REMARK   77  A    between atoms: _174  and  _175
REMARK   78  A    between atoms: _180  and  _181
REMARK   79  A    between atoms: _183  and  _185
REMARK   80  A    between atoms: _185  and  _186
REMARK   81  A    between atoms: _185  and  _188
REMARK   82  A    between atoms: _188  and  _189
REMARK   83  A    between atoms: _194  and  _195
REMARK   84  A    between atoms: _197  and  _199
REMARK   85  A    between atoms: _199  and  _200
REMARK   86  A    between atoms: _199  and  _202
REMARK   87  A    between atoms: _202  and  _203
REMARK   88  A    between atoms: _206  and  _208
REMARK   89  A    between atoms: _208  and  _209
REMARK   90  A    between atoms: _208  and  _211
REMARK   91  A    between atoms: _214  and  _216
REMARK   92  A    between atoms: _216  and  _217
REMARK   93  A    between atoms: _216  and  _219
REMARK   94  A    between atoms: _222  and  _224
REMARK   95  A    between atoms: _224  and  _225
REMARK   96  A    between atoms: _224  and  _227
REMARK   97  A    between atoms: _227  and  _228
REMARK   98  A    between atoms: _228  and  _229
REMARK   99  A    between atoms: _232  and  _234
REMARK  100  A    between atoms: _234  and  _235
REMARK  101  A    between atoms: _234  and  _237
REMARK  102  A    between atoms: _237  and  _238
REMARK  103  A    between atoms: _238  and  _239
REMARK  104  A    between atoms: _241  and  _243
REMARK  105  A    between atoms: _243  and  _244
REMARK  106  A    between atoms: _243  and  _246
REMARK  107  A    between atoms: _246  and  _247
REMARK  108  A    between atoms: _247  and  _248
REMARK  109  A    between atoms: _251  and  _253
REMARK  110  A    between atoms: _253  and  _254
REMARK  111  A    between atoms: _253  and  _256
REMARK  112  A    between atoms: _256  and  _257
REMARK  113  A    between atoms: _260  and  _262
REMARK  114  A    between atoms: _262  and  _263
REMARK  115  A    between atoms: _262  and  _265
REMARK  116  A    between atoms: _265  and  _266
REMARK  117  A    between atoms: _269  and  _271
REMARK  118  A    between atoms: _271  and  _272
REMARK  119  A    between atoms: _271  and  _274
REMARK  120  A    between atoms: _274  and  _275
REMARK  121  A    between atoms: _278  and  _280
REMARK  122  A    between atoms: _280  and  _281
REMARK  123  A    between atoms: _280  and  _283
REMARK  124  A    between atoms: _286  and  _288
REMARK  125  A    between atoms: _288  and  _289
REMARK  126  A    between atoms: _288  and  _291
REMARK  127  A    between atoms: _291  and  _292
REMARK  128  A    between atoms: _295  and  _297
REMARK  129  A    between atoms: _297  and  _298
REMARK  130  A    between atoms: _300  and  _302
REMARK  131  A    between atoms: _302  and  _303
REMARK  132  A    between atoms: _302  and  _305
REMARK  133  A    between atoms: _308  and  _309
REMARK  134  A    between atoms: _314  and  _316
REMARK  135  A    between atoms: _316  and  _317
REMARK  136  A    between atoms: _316  and  _319
REMARK  137  A    between atoms: _319  and  _320
REMARK  138  A    between atoms: _326  and  _328
REMARK  139  A    between atoms: _328  and  _329
REMARK  140  A    between atoms: _328  and  _331
REMARK  141  A    between atoms: _331  and  _332
REMARK  142  A    between atoms: _332  and  _333
REMARK  143  A    between atoms: _333  and  _334
REMARK  144  A    between atoms: _334  and  _335
REMARK  145  A    between atoms: _339  and  _341
REMARK  146  A    between atoms: _341  and  _342
REMARK  147  A    between atoms: _341  and  _344
REMARK  148  A    between atoms: _344  and  _345
REMARK  149  A    between atoms: _355  and  _357
REMARK  150  A    between atoms: _357  and  _358
REMARK  151  A    between atoms: _357  and  _360
REMARK  152  A    between atoms: _360  and  _361
REMARK  153  A    between atoms: _364  and  _366
REMARK  154  A    between atoms: _366  and  _367
REMARK  155  A    between atoms: _366  and  _369
REMARK  156  A    between atoms: _369  and  _370
REMARK  157  A    between atoms: _376  and  _378
REMARK  158  A    between atoms: _378  and  _379
REMARK  159  A    between atoms: _378  and  _381
REMARK  160  A    between atoms: _381  and  _382
REMARK  161  A    between atoms: _385  and  _387
REMARK  162  A    between atoms: _387  and  _388
REMARK  163  A    between atoms: _387  and  _390
REMARK  164  A    between atoms: _390  and  _391
REMARK  165  A    between atoms: _394  and  _396
REMARK  166  A    between atoms: _396  and  _397
REMARK  167  A    between atoms: _396  and  _399
REMARK  168  A    between atoms: _399  and  _400
REMARK  169  A    between atoms: _400  and  _401
REMARK  170  A    between atoms: _401  and  _402
REMARK  171  A    between atoms: _411  and  _413
REMARK  172  A    between atoms: _413  and  _414
REMARK  173  A    between atoms: _413  and  _416
REMARK  174  A    between atoms: _416  and  _417
REMARK  175  A    between atoms: _422  and  _424
REMARK  176  A    between atoms: _424  and  _425
REMARK  177  A    between atoms: _424  and  _427
REMARK  178  A    between atoms: _427  and  _428
REMARK  179  A    between atoms: _433  and  _435
REMARK  180  A    between atoms: _435  and  _436
REMARK  181  A    between atoms: _435  and  _438
REMARK  182  A    between atoms: _438  and  _439
REMARK  183  A    between atoms: _439  and  _440
REMARK  184  A    between atoms: _440  and  _441
REMARK  185  A    between atoms: _450  and  _452
REMARK  186  A    between atoms: _452  and  _453
REMARK  187  A    between atoms: _452  and  _455
REMARK  188  A    between atoms: _455  and  _456
REMARK  189  A    between atoms: _456  and  _457
REMARK  190  A    between atoms: _460  and  _462
REMARK  191  A    between atoms: _462  and  _463
REMARK  192  A    between atoms: _462  and  _465
REMARK  193  A    between atoms: _465  and  _466
REMARK  194  A    between atoms: _471  and  _472
REMARK  195  A    between atoms: _474  and  _476
REMARK  196  A    between atoms: _476  and  _477
REMARK  197  A    between atoms: _480  and  _482
REMARK  198  A    between atoms: _482  and  _483
REMARK  199  A    between atoms: _485  and  _487
REMARK  200  A    between atoms: _487  and  _488
REMARK  201  A    between atoms: _491  and  _493
REMARK  202  A    between atoms: _493  and  _494
REMARK  203  A    between atoms: _493  and  _496
REMARK  204  A    between atoms: _499  and  _501
REMARK  205  A    between atoms: _501  and  _502
REMARK  206  A    between atoms: _501  and  _504
REMARK  207  A    between atoms: _506  and  _508
REMARK  208  A    between atoms: _508  and  _509
REMARK  209  A    between atoms: _508  and  _511
REMARK  210  A    between atoms: _511  and  _512
REMARK  211  A    between atoms: _512  and  _513
REMARK                            x       y       z     vdW  Elec       q    Type
REMARK                         _______ _______ _______ _____ _____    ______ ____
ROOT
ATOM      1  C   CYS A   6       6.420  13.245  97.958  0.00  0.00    +0.245 C 
ATOM      2  O   CYS A   6       6.172  13.424  99.151  0.00  0.00    -0.273 OA
ATOM      3  N   PRO A   7       7.623  12.809  97.541  0.00  0.00    -0.272 N 
ATOM      4  CA  PRO A   7       8.686  12.484  98.499  0.00  0.00    +0.152 C 
ATOM      5  CB  PRO A   7       9.861  12.088  97.598  0.00  0.00    +0.031 C 
ATOM      6  CG  PRO A   7       9.612  12.884  96.343  0.00  0.00    +0.024 C 
ATOM      7  CD  PRO A   7       8.118  12.720  96.155  0.00  0.00    +0.094 C 
ENDROOT
BRANCH   4   8
ATOM      8  C   PRO A   7       9.039  13.600  99.484  0.00  0.00    +0.241 C 
ATOM      9  O   PRO A   7       9.574  13.337 100.559  0.00  0.00    -0.273 OA
ATOM     10  N   PHE A   8       8.744  14.844  99.125  0.00  0.00    -0.297 N 
ATOM     11  H   PHE A   8       8.307  15.026  98.199  0.00  0.00    +0.150 HD
BRANCH  10  12
ATOM     12  CA  PHE A   8       9.030  15.955 100.022  0.00  0.00    +0.153 C 
BRANCH  12  13
ATOM     13  C   PHE A   8       8.007  15.939 101.169  0.00  0.00    +0.241 C 
ATOM     14  O   PHE A   8       8.215  16.561 102.211  0.00  0.00    -0.273 OA
ATOM     15  N   LYS A   9       6.911  15.211 100.977  0.00  0.00    -0.297 N 
ATOM     16  H   LYS A   9       6.804  14.676 100.091  0.00  0.00    +0.150 HD
BRANCH  15  17
ATOM     17  CA  LYS A   9       5.859  15.147 101.980  0.00  0.00    +0.149 C 
BRANCH  17  18
ATOM     18  C   LYS A   9       5.491  13.738 102.429  0.00  0.00    +0.241 C 
ATOM     19  O   LYS A   9       4.351  13.489 102.826  0.00  0.00    -0.273 OA
ATOM     20  N   TRP A  10       6.438  12.812 102.363  0.00  0.00    -0.298 N 
ATOM     21  H   TRP A  10       7.382  13.059 102.003  0.00  0.00    +0.150 HD
BRANCH  20  22
ATOM     22  CA  TRP A  10       6.159  11.450 102.794  0.00  0.00    +0.141 C 
BRANCH  22  23
ATOM     23  C   TRP A  10       5.920  11.434 104.301  0.00  0.00    +0.227 C 
ATOM     24  O   TRP A  10       5.156  10.619 104.809  0.00  0.00    -0.286 OA
ENDBRANCH  22  23
BRANCH  22  25
ATOM     25  CB  TRP A  10       7.323  10.518 102.444  0.00  0.00    +0.056 C 
BRANCH  25  26
ATOM     26  CG  TRP A  10       7.290   9.975 101.036  0.00  0.00    -0.002 A 
ATOM     27  CD2 TRP A  10       8.262   9.115 100.431  0.00  0.00    +0.013 A 
ATOM     28  CE3 TRP A  10       9.466   8.548 100.874  0.00  0.00    +0.001 A 
ATOM     29  CZ3 TRP A  10      10.183   7.734 100.000  0.00  0.00    +0.000 A 
ATOM     30  CH2 TRP A  10       9.715   7.481  98.694  0.00  0.00    +0.001 A 
ATOM     31  CZ2 TRP A  10       8.539   8.024  98.235  0.00  0.00    +0.017 A 
ATOM     32  CE2 TRP A  10       7.819   8.842  99.114  0.00  0.00    +0.056 A 
ATOM     33  NE1 TRP A  10       6.633   9.505  98.932  0.00  0.00    -0.352 N 
ATOM     34  HE1 TRP A  10       6.062   9.496  98.063  0.00  0.00    +0.166 HD
ATOM     35  CD1 TRP A  10       6.322  10.185 100.088  0.00  0.00    +0.068 A 
ENDBRANCH  25  26
ENDBRANCH  22  25
ENDBRANCH  20  22
ENDBRANCH  17  18
BRANCH  17  36
ATOM     36  CB  LYS A   9       4.608  15.848 101.450  0.00  0.00    +0.029 C 
BRANCH  36  37
ATOM     37  CG  LYS A   9       4.805  17.326 101.175  0.00  0.00    +0.000 C 
BRANCH  37  38
ATOM     38  CD  LYS A   9       3.566  17.934 100.542  0.00  0.00    -0.024 C 
BRANCH  38  39
ATOM     39  CE  LYS A   9       3.693  19.445 100.433  0.00  0.00    -0.086 C 
BRANCH  39  40
ATOM     40  NZ  LYS A   9       4.862  19.856  99.599  0.00  0.00    +0.380 N 
ATOM     41  HZ1 LYS A   9       5.737  19.488 100.025  0.00  0.00    -0.089 HD
ATOM     42  HZ2 LYS A   9       4.907  20.894  99.554  0.00  0.00    -0.089 HD
ATOM     43  HZ3 LYS A   9       4.754  19.471  98.639  0.00  0.00    -0.089 HD
ENDBRANCH  39  40
ENDBRANCH  38  39
ENDBRANCH  37  38
ENDBRANCH  36  37
ENDBRANCH  17  36
ENDBRANCH  15  17
ENDBRANCH  12  13
BRANCH  12  44
ATOM     44  CB  PHE A   8       8.936  17.290  99.273  0.00  0.00    +0.055 C 
BRANCH  44  45
ATOM     45  CG  PHE A   8       9.884  17.412  98.105  0.00  0.00    -0.020 A 
ATOM     46  CD2 PHE A   8      11.238  17.088  98.243  0.00  0.00    -0.004 A 
ATOM     47  CE2 PHE A   8      12.124  17.237  97.171  0.00  0.00    -0.000 A 
ATOM     48  CZ  PHE A   8      11.654  17.715  95.939  0.00  0.00    -0.000 A 
ATOM     49  CE1 PHE A   8      10.301  18.039  95.793  0.00  0.00    -0.000 A 
ATOM     50  CD1 PHE A   8       9.428  17.887  96.873  0.00  0.00    -0.004 A 
ENDBRANCH  44  45
ENDBRANCH  12  44
ENDBRANCH  10  12
ENDBRANCH   4   8
BRANCH   1  51
ATOM     51  CA  CYS A   6       5.370  13.554  96.887  0.00  0.00    +0.161 C 
BRANCH  51  53
ATOM     52  C   GLY A   5       3.761  11.994  95.918  0.00  0.00    +0.243 C 
ATOM     53  N   CYS A   6       4.232  12.644  96.976  0.00  0.00    -0.296 N 
ATOM     54  H   CYS A   6       3.775  12.500  97.899  0.00  0.00    +0.150 HD
ATOM     55  O   GLY A   5       4.250  12.096  94.794  0.00  0.00    -0.273 OA
BRANCH  52  56
ATOM     56  CA  GLY A   5       2.568  11.088  96.154  0.00  0.00    +0.176 C 
BRANCH  56  59
ATOM     57  C   ASP A   4       1.627   9.134  95.095  0.00  0.00    +0.241 C 
ATOM     58  O   ASP A   4       1.371   8.628  96.188  0.00  0.00    -0.273 OA
ATOM     59  N   GLY A   5       2.207  10.323  94.974  0.00  0.00    -0.295 N 
ATOM     60  H   GLY A   5       2.404  10.708  94.028  0.00  0.00    +0.150 HD
BRANCH  57  61
ATOM     61  CA  ASP A   4       1.288   8.399  93.802  0.00  0.00    +0.160 C 
BRANCH  61  63
ATOM     62  C   VAL A   3       1.021   9.620  91.703  0.00  0.00    +0.241 C 
ATOM     63  N   ASP A   4       1.825   9.070  92.616  0.00  0.00    -0.297 N 
ATOM     64  H   ASP A   4       2.855   9.119  92.482  0.00  0.00    +0.150 HD
ATOM     65  O   VAL A   3      -0.210   9.620  91.803  0.00  0.00    -0.273 OA
BRANCH  62  66
ATOM     66  CA  VAL A   3       1.700  10.296  90.509  0.00  0.00    +0.149 C 
BRANCH  66  69
ATOM     67  C   ILE A   2       1.493   8.691  88.668  0.00  0.00    +0.241 C 
ATOM     68  O   ILE A   2       2.218   7.869  89.220  0.00  0.00    -0.273 OA
ATOM     69  N   VAL A   3       1.190   9.865  89.209  0.00  0.00    -0.297 N 
ATOM     70  H   VAL A   3       0.562  10.507  88.684  0.00  0.00    +0.150 HD
BRANCH  67  71
ATOM     71  CA  ILE A   2       0.899   8.411  87.288  0.00  0.00    +0.148 C 
BRANCH  71  73
ATOM     72  C   LEU A   1       2.381   8.639  85.373  0.00  0.00    +0.238 C 
ATOM     73  N   ILE A   2       1.970   7.937  86.424  0.00  0.00    -0.297 N 
ATOM     74  H   ILE A   2       2.425   7.026  86.634  0.00  0.00    +0.150 HD
ATOM     75  O   LEU A   1       1.886   9.717  85.043  0.00  0.00    -0.274 OA
BRANCH  72  76
ATOM     76  CA  LEU A   1       3.539   8.037  84.596  0.00  0.00    +0.145 C 
BRANCH  76  77
ATOM     77  N   LEU A   1       3.579   8.356  83.177  0.00  0.00    -0.238 NA
ATOM     78  H   LEU A   1       3.426   9.335  82.861  0.00  0.00    +0.142 HD
ENDBRANCH  76  77
BRANCH  76  79
ATOM     79  CB  LEU A   1       4.841   8.511  85.250  0.00  0.00    +0.026 C 
BRANCH  79  80
ATOM     80  CG  LEU A   1       6.189   8.120  84.636  0.00  0.00    +0.002 C 
ATOM     81  CD2 LEU A   1       7.261   9.101  85.108  0.00  0.00    +0.000 C 
ATOM     82  CD1 LEU A   1       6.554   6.699  85.026  0.00  0.00    +0.000 C 
ENDBRANCH  79  80
ENDBRANCH  76  79
ENDBRANCH  72  76
ENDBRANCH  71  73
BRANCH  71  83
ATOM     83  CB  ILE A   2      -0.257   7.373  87.386  0.00  0.00    +0.027 C 
ATOM     84  CG2 ILE A   2       0.280   6.013  87.836  0.00  0.00    +0.002 C 
BRANCH  83  85
ATOM     85  CG1 ILE A   2      -1.337   7.888  88.341  0.00  0.00    +0.002 C 
ATOM     86  CD1 ILE A   2      -2.670   7.177  88.182  0.00  0.00    +0.000 C 
ENDBRANCH  83  85
ENDBRANCH  71  83
ENDBRANCH  67  71
ENDBRANCH  66  69
BRANCH  66  87
ATOM     87  CB  VAL A   3       1.535  11.820  90.664  0.00  0.00    +0.027 C 
ATOM     88  CG2 VAL A   3       2.091  12.280  92.010  0.00  0.00    +0.002 C 
ATOM     89  CG1 VAL A   3       2.233  12.529  89.515  0.00  0.00    +0.002 C 
ENDBRANCH  66  87
ENDBRANCH  62  66
ENDBRANCH  61  63
BRANCH  61  90
ATOM     90  CB  ASP A   4       1.807   6.955  93.896  0.00  0.00    +0.143 C 
BRANCH  90  91
ATOM     91  CG  ASP A   4       3.307   6.878  94.180  0.00  0.00    +0.367 C 
ATOM     92  OD2 ASP A   4       3.957   7.937  94.321  0.00  0.00    -0.246 OA
ATOM     93  OD1 ASP A   4       3.835   5.749  94.265  0.00  0.00    -0.246 OA
ENDBRANCH  90  91
ENDBRANCH  61  90
ENDBRANCH  57  61
ENDBRANCH  56  59
ENDBRANCH  52  56
ENDBRANCH  51  53
BRANCH  51  94
ATOM     94  CB  CYS A   6       4.887  14.998  97.046  0.00  0.00    +0.098 C 
ATOM     95  SG  CYS A   6       6.207  16.223  97.091  0.00  0.00    -0.080 S 
ENDBRANCH  51  94
ENDBRANCH   1  51
TORSDOF 36
REMARK  Name = ../refined-set-2016/1q1g/1q1g_pocket.pdb
REMARK  211 active torsions:
REMARK  status: ('A' for Active; 'I' for Inactive)
REMARK    1  A    between atoms: _1  and  _3
REMARK    2  A    between atoms: _3  and  _4
REMARK    3  A    between atoms: _3  and  _6
REMARK    4  A    between atoms: _9  and  _11
REMARK    5  A    between atoms: _11  and  _12
REMARK    6  A    between atoms: _14  and  _16
REMARK    7  A    between atoms: _16  and  _17
REMARK    8  A    between atoms: _16  and  _19
REMARK    9  A    between atoms: _19  and  _20
REMARK   10  A    between atoms: _23  and  _25
REMARK   11  A    between atoms: _25  and  _26
REMARK   12  A    between atoms: _25  and  _28
REMARK   13  A    between atoms: _28  and  _29
REMARK   14  A    between atoms: _34  and  _36
REMARK   15  A    between atoms: _36  and  _37
REMARK   16  A    between atoms: _39  and  _41
REMARK   17  A    between atoms: _41  and  _42
REMARK   18  A    between atoms: _41  and  _44
REMARK   19  A    between atoms: _47  and  _49
REMARK   20  A    between atoms: _49  and  _50
REMARK   21  A    between atoms: _52  and  _54
REMARK   22  A    between atoms: _54  and  _55
REMARK   23  A    between atoms: _54  and  _57
REMARK   24  A    between atoms: _57  and  _58
REMARK   25  A    between atoms: _60  and  _62
REMARK   26  A    between atoms: _62  and  _63
REMARK   27  A    between atoms: _62  and  _65
REMARK   28  A    between atoms: _65  and  _66
REMARK   29  A    between atoms: _66  and  _67
REMARK   30  A    between atoms: _67  and  _68
REMARK   31  A    between atoms: _77  and  _79
REMARK   32  A    between atoms: _79  and  _80
REMARK   33  A    between atoms: _82  and  _84
REMARK   34  A    between atoms: _84  and  _85
REMARK   35  A    between atoms: _84  and  _87
REMARK   36  A    between atoms: _87  and  _88
REMARK   37  A    between atoms: _90  and  _92
REMARK   38  A    between atoms: _92  and  _93
REMARK   39  A    between atoms: _92  and  _95
REMARK   40  A    between atoms: _97  and  _99
REMARK   41  A    between atoms: _99  and  _100
REMARK   42  A    between atoms: _102  and  _104
REMARK   43  A    between atoms: _104  and  _105
REMARK   44  A    between atoms: _104  and  _107
REMARK   45  A    between atoms: _107  and  _108
REMARK   46  A    between atoms: _110  and  _112
REMARK   47  A    between atoms: _112  and  _113
REMARK   48  A    between atoms: _112  and  _115
REMARK   49  A    between atoms: _115  and  _116
REMARK   50  A    between atoms: _119  and  _121
REMARK   51  A    between atoms: _121  and  _122
REMARK   52  A    between atoms: _121  and  _124
REMARK   53  A    between atoms: _124  and  _125
REMARK   54  A    between atoms: _127  and  _129
REMARK   55  A    between atoms: _129  and  _130
REMARK   56  A    between atoms: _129  and  _132
REMARK   57  A    between atoms: _135  and  _137
REMARK   58  A    between atoms: _137  and  _138
REMARK   59  A    between atoms: _137  and  _140
REMARK   60  A    between atoms: _140  and  _141
REMARK   61  A    between atoms: _143  and  _145
REMARK   62  A    between atoms: _145  and  _146
REMARK   63  A    between atoms: _145  and  _148
REMARK   64  A    between atoms: _148  and  _149
REMARK   65  A    between atoms: _151  and  _153
REMARK   66  A    between atoms: _153  and  _154
REMARK   67  A    between atoms: _153  and  _156
REMARK   68  A    between atoms: _156  and  _157
REMARK   69  A    between atoms: _160  and  _162
REMARK   70  A    between atoms: _162  and  _163
REMARK   71  A    between atoms: _162  and  _165
REMARK   72  A    between atoms: _165  and  _166
REMARK   73  A    between atoms: _166  and  _167
REMARK   74  A    between atoms: _169  and  _171
REMARK   75  A    between atoms: _171  and  _172
REMARK   76  A    between atoms: _171  and  _174
REMARK   77  A    between atoms: _174  and  _175
REMARK   78  A    between atoms: _180  and  _181
REMARK   79  A    between atoms: _183  and  _185
REMARK   80  A    between atoms: _185  and  _186
REMARK   81  A    between atoms: _185  and  _188
REMARK   82  A    between atoms: _188  and  _189
REMARK   83  A    between atoms: _194  and  _195
REMARK   84  A    between atoms: _197  and  _199
REMARK   85  A    between atoms: _199  and  _200
REMARK   86  A    between atoms: _199  and  _202
REMARK   87  A    between atoms: _202  and  _203
REMARK   88  A    between atoms: _206  and  _208
REMARK   89  A    between atoms: _208  and  _209
REMARK   90  A    between atoms: _208  and  _211
REMARK   91  A    between atoms: _214  and  _216
REMARK   92  A    between atoms: _216  and  _217
REMARK   93  A    between atoms: _216  and  _219
REMARK   94  A    between atoms: _222  and  _224
REMARK   95  A    between atoms: _224  and  _225
REMARK   96  A    between atoms: _224  and  _227
REMARK   97  A    between atoms: _227  and  _228
REMARK   98  A    between atoms: _228  and  _229
REMARK   99  A    between atoms: _232  and  _234
REMARK  100  A    between atoms: _234  and  _235
REMARK  101  A    between atoms: _234  and  _237
REMARK  102  A    between atoms: _237  and  _238
REMARK  103  A    between atoms: _238  and  _239
REMARK  104  A    between atoms: _241  and  _243
REMARK  105  A    between atoms: _243  and  _244
REMARK  106  A    between atoms: _243  and  _246
REMARK  107  A    between atoms: _246  and  _247
REMARK  108  A    between atoms: _247  and  _248
REMARK  109  A    between atoms: _251  and  _253
REMARK  110  A    between atoms: _253  and  _254
REMARK  111  A    between atoms: _253  and  _256
REMARK  112  A    between atoms: _256  and  _257
REMARK  113  A    between atoms: _260  and  _262
REMARK  114  A    between atoms: _262  and  _263
REMARK  115  A    between atoms: _262  and  _265
REMARK  116  A    between atoms: _265  and  _266
REMARK  117  A    between atoms: _269  and  _271
REMARK  118  A    between atoms: _271  and  _272
REMARK  119  A    between atoms: _271  and  _274
REMARK  120  A    between atoms: _274  and  _275
REMARK  121  A    between atoms: _278  and  _280
REMARK  122  A    between atoms: _280  and  _281
REMARK  123  A    between atoms: _280  and  _283
REMARK  124  A    between atoms: _286  and  _288
REMARK  125  A    between atoms: _288  and  _289
REMARK  126  A    between atoms: _288  and  _291
REMARK  127  A    between atoms: _291  and  _292
REMARK  128  A    between atoms: _295  and  _297
REMARK  129  A    between atoms: _297  and  _298
REMARK  130  A    between atoms: _300  and  _302
REMARK  131  A    between atoms: _302  and  _303
REMARK  132  A    between atoms: _302  and  _305
REMARK  133  A    between atoms: _308  and  _309
REMARK  134  A    between atoms: _314  and  _316
REMARK  135  A    between atoms: _316  and  _317
REMARK  136  A    between atoms: _316  and  _319
REMARK  137  A    between atoms: _319  and  _320
REMARK  138  A    between atoms: _326  and  _328
REMARK  139  A    between atoms: _328  and  _329
REMARK  140  A    between atoms: _328  and  _331
REMARK  141  A    between atoms: _331  and  _332
REMARK  142  A    between atoms: _332  and  _333
REMARK  143  A    between atoms: _333  and  _334
REMARK  144  A    between atoms: _334  and  _335
REMARK  145  A    between atoms: _339  and  _341
REMARK  146  A    between atoms: _341  and  _342
REMARK  147  A    between atoms: _341  and  _344
REMARK  148  A    between atoms: _344  and  _345
REMARK  149  A    between atoms: _355  and  _357
REMARK  150  A    between atoms: _357  and  _358
REMARK  151  A    between atoms: _357  and  _360
REMARK  152  A    between atoms: _360  and  _361
REMARK  153  A    between atoms: _364  and  _366
REMARK  154  A    between atoms: _366  and  _367
REMARK  155  A    between atoms: _366  and  _369
REMARK  156  A    between atoms: _369  and  _370
REMARK  157  A    between atoms: _376  and  _378
REMARK  158  A    between atoms: _378  and  _379
REMARK  159  A    between atoms: _378  and  _381
REMARK  160  A    between atoms: _381  and  _382
REMARK  161  A    between atoms: _385  and  _387
REMARK  162  A    between atoms: _387  and  _388
REMARK  163  A    between atoms: _387  and  _390
REMARK  164  A    between atoms: _390  and  _391
REMARK  165  A    between atoms: _394  and  _396
REMARK  166  A    between atoms: _396  and  _397
REMARK  167  A    between atoms: _396  and  _399
REMARK  168  A    between atoms: _399  and  _400
REMARK  169  A    between atoms: _400  and  _401
REMARK  170  A    between atoms: _401  and  _402
REMARK  171  A    between atoms: _411  and  _413
REMARK  172  A    between atoms: _413  and  _414
REMARK  173  A    between atoms: _413  and  _416
REMARK  174  A    between atoms: _416  and  _417
REMARK  175  A    between atoms: _422  and  _424
REMARK  176  A    between atoms: _424  and  _425
REMARK  177  A    between atoms: _424  and  _427
REMARK  178  A    between atoms: _427  and  _428
REMARK  179  A    between atoms: _433  and  _435
REMARK  180  A    between atoms: _435  and  _436
REMARK  181  A    between atoms: _435  and  _438
REMARK  182  A    between atoms: _438  and  _439
REMARK  183  A    between atoms: _439  and  _440
REMARK  184  A    between atoms: _440  and  _441
REMARK  185  A    between atoms: _450  and  _452
REMARK  186  A    between atoms: _452  and  _453
REMARK  187  A    between atoms: _452  and  _455
REMARK  188  A    between atoms: _455  and  _456
REMARK  189  A    between atoms: _456  and  _457
REMARK  190  A    between atoms: _460  and  _462
REMARK  191  A    between atoms: _462  and  _463
REMARK  192  A    between atoms: _462  and  _465
REMARK  193  A    between atoms: _465  and  _466
REMARK  194  A    between atoms: _471  and  _472
REMARK  195  A    between atoms: _474  and  _476
REMARK  196  A    between atoms: _476  and  _477
REMARK  197  A    between atoms: _480  and  _482
REMARK  198  A    between atoms: _482  and  _483
REMARK  199  A    between atoms: _485  and  _487
REMARK  200  A    between atoms: _487  and  _488
REMARK  201  A    between atoms: _491  and  _493
REMARK  202  A    between atoms: _493  and  _494
REMARK  203  A    between atoms: _493  and  _496
REMARK  204  A    between atoms: _499  and  _501
REMARK  205  A    between atoms: _501  and  _502
REMARK  206  A    between atoms: _501  and  _504
REMARK  207  A    between atoms: _506  and  _508
REMARK  208  A    between atoms: _508  and  _509
REMARK  209  A    between atoms: _508  and  _511
REMARK  210  A    between atoms: _511  and  _512
REMARK  211  A    between atoms: _512  and  _513
REMARK                            x       y       z     vdW  Elec       q    Type
REMARK                         _______ _______ _______ _____ _____    ______ ____
ROOT
ATOM      1  CA  PHE A   2       1.685   8.766  99.530  0.00  0.00    +0.153 C 
ENDROOT
BRANCH   1   3
ATOM      2  C   ASP A   1       1.969  11.118 100.119  0.00  0.00    +0.239 C 
ATOM      3  N   PHE A   2       1.360   9.954 100.300  0.00  0.00    -0.297 N 
ATOM      4  H   PHE A   2       0.617   9.889 101.025  0.00  0.00    +0.150 HD
ATOM      5  O   ASP A   1       2.873  11.295  99.297  0.00  0.00    -0.274 OA
BRANCH   2   6
ATOM      6  CA  ASP A   1       1.479  12.245 101.016  0.00  0.00    +0.156 C 
BRANCH   6   7
ATOM      7  N   ASP A   1       1.766  11.944 102.416  0.00  0.00    -0.238 NA
ATOM      8  H   ASP A   1       2.544  12.440 102.895  0.00  0.00    +0.142 HD
ENDBRANCH   6   7
BRANCH   6   9
ATOM      9  CB  ASP A   1       2.131  13.565 100.591  0.00  0.00    +0.140 C 
BRANCH   9  10
ATOM     10  CG  ASP A   1       1.681  14.020  99.208  0.00  0.00    +0.367 C 
ATOM     11  OD2 ASP A   1       2.160  15.075  98.741  0.00  0.00    -0.246 OA
ATOM     12  OD1 ASP A   1       0.844  13.324  98.594  0.00  0.00    -0.246 OA
ENDBRANCH   9  10
ENDBRANCH   6   9
ENDBRANCH   2   6
ENDBRANCH   1   3
BRANCH   1  13
ATOM     13  C   PHE A   2       0.491   7.823  99.545  0.00  0.00    +0.241 C 
ATOM     14  O   PHE A   2       0.067   7.362 100.605  0.00  0.00    -0.273 OA
ATOM     15  N   ASP A   3      -0.050   7.538  98.368  0.00  0.00    -0.298 N 
ATOM     16  H   ASP A   3       0.341   7.967  97.505  0.00  0.00    +0.150 HD
BRANCH  15  17
ATOM     17  CA  ASP A   3      -1.181   6.634  98.271  0.00  0.00    +0.148 C 
BRANCH  17  18
ATOM     18  C   ASP A   3      -0.687   5.262  97.831  0.00  0.00    +0.227 C 
ATOM     19  O   ASP A   3      -0.070   5.126  96.772  0.00  0.00    -0.286 OA
ENDBRANCH  17  18
BRANCH  17  20
ATOM     20  CB  ASP A   3      -2.210   7.146  97.252  0.00  0.00    +0.142 C 
BRANCH  20  21
ATOM     21  CG  ASP A   3      -2.675   8.567  97.540  0.00  0.00    +0.367 C 
ATOM     22  OD2 ASP A   3      -2.895   8.903  98.726  0.00  0.00    -0.246 OA
ATOM     23  OD1 ASP A   3      -2.834   9.344  96.571  0.00  0.00    -0.246 OA
ENDBRANCH  20  21
ENDBRANCH  17  20
ENDBRANCH  15  17
ENDBRANCH   1  13
BRANCH   1  24
ATOM     24  CB  PHE A   2       2.892   8.038 100.127  0.00  0.00    +0.055 C 
BRANCH  24  25
ATOM     25  CG  PHE A   2       3.061   6.638  99.606  0.00  0.00    -0.020 A 
ATOM     26  CD2 PHE A   2       2.682   5.547 100.381  0.00  0.00    -0.004 A 
ATOM     27  CE2 PHE A   2       2.766   4.251  99.878  0.00  0.00    -0.000 A 
ATOM     28  CZ  PHE A   2       3.238   4.036  98.586  0.00  0.00    -0.000 A 
ATOM     29  CE1 PHE A   2       3.624   5.118  97.804  0.00  0.00    -0.000 A 
ATOM     30  CD1 PHE A   2       3.535   6.412  98.318  0.00  0.00    -0.004 A 
ENDBRANCH  24  25
ENDBRANCH   1  24
TORSDOF 12
REMARK  Name = ../refined-set-2016/1q1g/1q1g_pocket.pdb
REMARK  211 active torsions:
REMARK  status: ('A' for Active; 'I' for Inactive)
REMARK    1  A    between atoms: _1  and  _3
REMARK    2  A    between atoms: _3  and  _4
REMARK    3  A    between atoms: _3  and  _6
REMARK    4  A    between atoms: _9  and  _11
REMARK    5  A    between atoms: _11  and  _12
REMARK    6  A    between atoms: _14  and  _16
REMARK    7  A    between atoms: _16  and  _17
REMARK    8  A    between atoms: _16  and  _19
REMARK    9  A    between atoms: _19  and  _20
REMARK   10  A    between atoms: _23  and  _25
REMARK   11  A    between atoms: _25  and  _26
REMARK   12  A    between atoms: _25  and  _28
REMARK   13  A    between atoms: _28  and  _29
REMARK   14  A    between atoms: _34  and  _36
REMARK   15  A    between atoms: _36  and  _37
REMARK   16  A    between atoms: _39  and  _41
REMARK   17  A    between atoms: _41  and  _42
REMARK   18  A    between atoms: _41  and  _44
REMARK   19  A    between atoms: _47  and  _49
REMARK   20  A    between atoms: _49  and  _50
REMARK   21  A    between atoms: _52  and  _54
REMARK   22  A    between atoms: _54  and  _55
REMARK   23  A    between atoms: _54  and  _57
REMARK   24  A    between atoms: _57  and  _58
REMARK   25  A    between atoms: _60  and  _62
REMARK   26  A    between atoms: _62  and  _63
REMARK   27  A    between atoms: _62  and  _65
REMARK   28  A    between atoms: _65  and  _66
REMARK   29  A    between atoms: _66  and  _67
REMARK   30  A    between atoms: _67  and  _68
REMARK   31  A    between atoms: _77  and  _79
REMARK   32  A    between atoms: _79  and  _80
REMARK   33  A    between atoms: _82  and  _84
REMARK   34  A    between atoms: _84  and  _85
REMARK   35  A    between atoms: _84  and  _87
REMARK   36  A    between atoms: _87  and  _88
REMARK   37  A    between atoms: _90  and  _92
REMARK   38  A    between atoms: _92  and  _93
REMARK   39  A    between atoms: _92  and  _95
REMARK   40  A    between atoms: _97  and  _99
REMARK   41  A    between atoms: _99  and  _100
REMARK   42  A    between atoms: _102  and  _104
REMARK   43  A    between atoms: _104  and  _105
REMARK   44  A    between atoms: _104  and  _107
REMARK   45  A    between atoms: _107  and  _108
REMARK   46  A    between atoms: _110  and  _112
REMARK   47  A    between atoms: _112  and  _113
REMARK   48  A    between atoms: _112  and  _115
REMARK   49  A    between atoms: _115  and  _116
REMARK   50  A    between atoms: _119  and  _121
REMARK   51  A    between atoms: _121  and  _122
REMARK   52  A    between atoms: _121  and  _124
REMARK   53  A    between atoms: _124  and  _125
REMARK   54  A    between atoms: _127  and  _129
REMARK   55  A    between atoms: _129  and  _130
REMARK   56  A    between atoms: _129  and  _132
REMARK   57  A    between atoms: _135  and  _137
REMARK   58  A    between atoms: _137  and  _138
REMARK   59  A    between atoms: _137  and  _140
REMARK   60  A    between atoms: _140  and  _141
REMARK   61  A    between atoms: _143  and  _145
REMARK   62  A    between atoms: _145  and  _146
REMARK   63  A    between atoms: _145  and  _148
REMARK   64  A    between atoms: _148  and  _149
REMARK   65  A    between atoms: _151  and  _153
REMARK   66  A    between atoms: _153  and  _154
REMARK   67  A    between atoms: _153  and  _156
REMARK   68  A    between atoms: _156  and  _157
REMARK   69  A    between atoms: _160  and  _162
REMARK   70  A    between atoms: _162  and  _163
REMARK   71  A    between atoms: _162  and  _165
REMARK   72  A    between atoms: _165  and  _166
REMARK   73  A    between atoms: _166  and  _167
REMARK   74  A    between atoms: _169  and  _171
REMARK   75  A    between atoms: _171  and  _172
REMARK   76  A    between atoms: _171  and  _174
REMARK   77  A    between atoms: _174  and  _175
REMARK   78  A    between atoms: _180  and  _181
REMARK   79  A    between atoms: _183  and  _185
REMARK   80  A    between atoms: _185  and  _186
REMARK   81  A    between atoms: _185  and  _188
REMARK   82  A    between atoms: _188  and  _189
REMARK   83  A    between atoms: _194  and  _195
REMARK   84  A    between atoms: _197  and  _199
REMARK   85  A    between atoms: _199  and  _200
REMARK   86  A    between atoms: _199  and  _202
REMARK   87  A    between atoms: _202  and  _203
REMARK   88  A    between atoms: _206  and  _208
REMARK   89  A    between atoms: _208  and  _209
REMARK   90  A    between atoms: _208  and  _211
REMARK   91  A    between atoms: _214  and  _216
REMARK   92  A    between atoms: _216  and  _217
REMARK   93  A    between atoms: _216  and  _219
REMARK   94  A    between atoms: _222  and  _224
REMARK   95  A    between atoms: _224  and  _225
REMARK   96  A    between atoms: _224  and  _227
REMARK   97  A    between atoms: _227  and  _228
REMARK   98  A    between atoms: _228  and  _229
REMARK   99  A    between atoms: _232  and  _234
REMARK  100  A    between atoms: _234  and  _235
REMARK  101  A    between atoms: _234  and  _237
REMARK  102  A    between atoms: _237  and  _238
REMARK  103  A    between atoms: _238  and  _239
REMARK  104  A    between atoms: _241  and  _243
REMARK  105  A    between atoms: _243  and  _244
REMARK  106  A    between atoms: _243  and  _246
REMARK  107  A    between atoms: _246  and  _247
REMARK  108  A    between atoms: _247  and  _248
REMARK  109  A    between atoms: _251  and  _253
REMARK  110  A    between atoms: _253  and  _254
REMARK  111  A    between atoms: _253  and  _256
REMARK  112  A    between atoms: _256  and  _257
REMARK  113  A    between atoms: _260  and  _262
REMARK  114  A    between atoms: _262  and  _263
REMARK  115  A    between atoms: _262  and  _265
REMARK  116  A    between atoms: _265  and  _266
REMARK  117  A    between atoms: _269  and  _271
REMARK  118  A    between atoms: _271  and  _272
REMARK  119  A    between atoms: _271  and  _274
REMARK  120  A    between atoms: _274  and  _275
REMARK  121  A    between atoms: _278  and  _280
REMARK  122  A    between atoms: _280  and  _281
REMARK  123  A    between atoms: _280  and  _283
REMARK  124  A    between atoms: _286  and  _288
REMARK  125  A    between atoms: _288  and  _289
REMARK  126  A    between atoms: _288  and  _291
REMARK  127  A    between atoms: _291  and  _292
REMARK  128  A    between atoms: _295  and  _297
REMARK  129  A    between atoms: _297  and  _298
REMARK  130  A    between atoms: _300  and  _302
REMARK  131  A    between atoms: _302  and  _303
REMARK  132  A    between atoms: _302  and  _305
REMARK  133  A    between atoms: _308  and  _309
REMARK  134  A    between atoms: _314  and  _316
REMARK  135  A    between atoms: _316  and  _317
REMARK  136  A    between atoms: _316  and  _319
REMARK  137  A    between atoms: _319  and  _320
REMARK  138  A    between atoms: _326  and  _328
REMARK  139  A    between atoms: _328  and  _329
REMARK  140  A    between atoms: _328  and  _331
REMARK  141  A    between atoms: _331  and  _332
REMARK  142  A    between atoms: _332  and  _333
REMARK  143  A    between atoms: _333  and  _334
REMARK  144  A    between atoms: _334  and  _335
REMARK  145  A    between atoms: _339  and  _341
REMARK  146  A    between atoms: _341  and  _342
REMARK  147  A    between atoms: _341  and  _344
REMARK  148  A    between atoms: _344  and  _345
REMARK  149  A    between atoms: _355  and  _357
REMARK  150  A    between atoms: _357  and  _358
REMARK  151  A    between atoms: _357  and  _360
REMARK  152  A    between atoms: _360  and  _361
REMARK  153  A    between atoms: _364  and  _366
REMARK  154  A    between atoms: _366  and  _367
REMARK  155  A    between atoms: _366  and  _369
REMARK  156  A    between atoms: _369  and  _370
REMARK  157  A    between atoms: _376  and  _378
REMARK  158  A    between atoms: _378  and  _379
REMARK  159  A    between atoms: _378  and  _381
REMARK  160  A    between atoms: _381  and  _382
REMARK  161  A    between atoms: _385  and  _387
REMARK  162  A    between atoms: _387  and  _388
REMARK  163  A    between atoms: _387  and  _390
REMARK  164  A    between atoms: _390  and  _391
REMARK  165  A    between atoms: _394  and  _396
REMARK  166  A    between atoms: _396  and  _397
REMARK  167  A    between atoms: _396  and  _399
REMARK  168  A    between atoms: _399  and  _400
REMARK  169  A    between atoms: _400  and  _401
REMARK  170  A    between atoms: _401  and  _402
REMARK  171  A    between atoms: _411  and  _413
REMARK  172  A    between atoms: _413  and  _414
REMARK  173  A    between atoms: _413  and  _416
REMARK  174  A    between atoms: _416  and  _417
REMARK  175  A    between atoms: _422  and  _424
REMARK  176  A    between atoms: _424  and  _425
REMARK  177  A    between atoms: _424  and  _427
REMARK  178  A    between atoms: _427  and  _428
REMARK  179  A    between atoms: _433  and  _435
REMARK  180  A    between atoms: _435  and  _436
REMARK  181  A    between atoms: _435  and  _438
REMARK  182  A    between atoms: _438  and  _439
REMARK  183  A    between atoms: _439  and  _440
REMARK  184  A    between atoms: _440  and  _441
REMARK  185  A    between atoms: _450  and  _452
REMARK  186  A    between atoms: _452  and  _453
REMARK  187  A    between atoms: _452  and  _455
REMARK  188  A    between atoms: _455  and  _456
REMARK  189  A    between atoms: _456  and  _457
REMARK  190  A    between atoms: _460  and  _462
REMARK  191  A    between atoms: _462  and  _463
REMARK  192  A    between atoms: _462  and  _465
REMARK  193  A    between atoms: _465  and  _466
REMARK  194  A    between atoms: _471  and  _472
REMARK  195  A    between atoms: _474  and  _476
REMARK  196  A    between atoms: _476  and  _477
REMARK  197  A    between atoms: _480  and  _482
REMARK  198  A    between atoms: _482  and  _483
REMARK  199  A    between atoms: _485  and  _487
REMARK  200  A    between atoms: _487  and  _488
REMARK  201  A    between atoms: _491  and  _493
REMARK  202  A    between atoms: _493  and  _494
REMARK  203  A    between atoms: _493  and  _496
REMARK  204  A    between atoms: _499  and  _501
REMARK  205  A    between atoms: _501  and  _502
REMARK  206  A    between atoms: _501  and  _504
REMARK  207  A    between atoms: _506  and  _508
REMARK  208  A    between atoms: _508  and  _509
REMARK  209  A    between atoms: _508  and  _511
REMARK  210  A    between atoms: _511  and  _512
REMARK  211  A    between atoms: _512  and  _513
REMARK                            x       y       z     vdW  Elec       q    Type
REMARK                         _______ _______ _______ _____ _____    ______ ____
ROOT
ATOM      1  CA  LEU A   1      -3.415   4.625  92.517  0.00  0.00    +0.133 C 
ENDROOT
BRANCH   1   2
ATOM      2  N   LEU A   1      -3.392   3.600  93.553  0.00  0.00    -0.239 NA
ATOM      3  H   LEU A   1      -3.350   2.598  93.277  0.00  0.00    +0.142 HD
ENDBRANCH   1   2
BRANCH   1   4
ATOM      4  C   LEU A   1      -4.861   4.997  92.200  0.00  0.00    +0.224 C 
ATOM      5  O   LEU A   1      -5.725   4.128  92.158  0.00  0.00    -0.287 OA
ENDBRANCH   1   4
BRANCH   1   6
ATOM      6  CB  LEU A   1      -2.733   4.100  91.250  0.00  0.00    +0.025 C 
BRANCH   6   7
ATOM      7  CG  LEU A   1      -1.261   3.718  91.410  0.00  0.00    +0.002 C 
ATOM      8  CD2 LEU A   1      -0.454   4.957  91.781  0.00  0.00    +0.000 C 
ATOM      9  CD1 LEU A   1      -0.744   3.104  90.122  0.00  0.00    +0.000 C 
ENDBRANCH   6   7
ENDBRANCH   1   6
TORSDOF 4
REMARK  Name = ../refined-set-2016/1q1g/1q1g_pocket.pdb
REMARK  211 active torsions:
REMARK  status: ('A' for Active; 'I' for Inactive)
REMARK    1  A    between atoms: _1  and  _3
REMARK    2  A    between atoms: _3  and  _4
REMARK    3  A    between atoms: _3  and  _6
REMARK    4  A    between atoms: _9  and  _11
REMARK    5  A    between atoms: _11  and  _12
REMARK    6  A    between atoms: _14  and  _16
REMARK    7  A    between atoms: _16  and  _17
REMARK    8  A    between atoms: _16  and  _19
REMARK    9  A    between atoms: _19  and  _20
REMARK   10  A    between atoms: _23  and  _25
REMARK   11  A    between atoms: _25  and  _26
REMARK   12  A    between atoms: _25  and  _28
REMARK   13  A    between atoms: _28  and  _29
REMARK   14  A    between atoms: _34  and  _36
REMARK   15  A    between atoms: _36  and  _37
REMARK   16  A    between atoms: _39  and  _41
REMARK   17  A    between atoms: _41  and  _42
REMARK   18  A    between atoms: _41  and  _44
REMARK   19  A    between atoms: _47  and  _49
REMARK   20  A    between atoms: _49  and  _50
REMARK   21  A    between atoms: _52  and  _54
REMARK   22  A    between atoms: _54  and  _55
REMARK   23  A    between atoms: _54  and  _57
REMARK   24  A    between atoms: _57  and  _58
REMARK   25  A    between atoms: _60  and  _62
REMARK   26  A    between atoms: _62  and  _63
REMARK   27  A    between atoms: _62  and  _65
REMARK   28  A    between atoms: _65  and  _66
REMARK   29  A    between atoms: _66  and  _67
REMARK   30  A    between atoms: _67  and  _68
REMARK   31  A    between atoms: _77  and  _79
REMARK   32  A    between atoms: _79  and  _80
REMARK   33  A    between atoms: _82  and  _84
REMARK   34  A    between atoms: _84  and  _85
REMARK   35  A    between atoms: _84  and  _87
REMARK   36  A    between atoms: _87  and  _88
REMARK   37  A    between atoms: _90  and  _92
REMARK   38  A    between atoms: _92  and  _93
REMARK   39  A    between atoms: _92  and  _95
REMARK   40  A    between atoms: _97  and  _99
REMARK   41  A    between atoms: _99  and  _100
REMARK   42  A    between atoms: _102  and  _104
REMARK   43  A    between atoms: _104  and  _105
REMARK   44  A    between atoms: _104  and  _107
REMARK   45  A    between atoms: _107  and  _108
REMARK   46  A    between atoms: _110  and  _112
REMARK   47  A    between atoms: _112  and  _113
REMARK   48  A    between atoms: _112  and  _115
REMARK   49  A    between atoms: _115  and  _116
REMARK   50  A    between atoms: _119  and  _121
REMARK   51  A    between atoms: _121  and  _122
REMARK   52  A    between atoms: _121  and  _124
REMARK   53  A    between atoms: _124  and  _125
REMARK   54  A    between atoms: _127  and  _129
REMARK   55  A    between atoms: _129  and  _130
REMARK   56  A    between atoms: _129  and  _132
REMARK   57  A    between atoms: _135  and  _137
REMARK   58  A    between atoms: _137  and  _138
REMARK   59  A    between atoms: _137  and  _140
REMARK   60  A    between atoms: _140  and  _141
REMARK   61  A    between atoms: _143  and  _145
REMARK   62  A    between atoms: _145  and  _146
REMARK   63  A    between atoms: _145  and  _148
REMARK   64  A    between atoms: _148  and  _149
REMARK   65  A    between atoms: _151  and  _153
REMARK   66  A    between atoms: _153  and  _154
REMARK   67  A    between atoms: _153  and  _156
REMARK   68  A    between atoms: _156  and  _157
REMARK   69  A    between atoms: _160  and  _162
REMARK   70  A    between atoms: _162  and  _163
REMARK   71  A    between atoms: _162  and  _165
REMARK   72  A    between atoms: _165  and  _166
REMARK   73  A    between atoms: _166  and  _167
REMARK   74  A    between atoms: _169  and  _171
REMARK   75  A    between atoms: _171  and  _172
REMARK   76  A    between atoms: _171  and  _174
REMARK   77  A    between atoms: _174  and  _175
REMARK   78  A    between atoms: _180  and  _181
REMARK   79  A    between atoms: _183  and  _185
REMARK   80  A    between atoms: _185  and  _186
REMARK   81  A    between atoms: _185  and  _188
REMARK   82  A    between atoms: _188  and  _189
REMARK   83  A    between atoms: _194  and  _195
REMARK   84  A    between atoms: _197  and  _199
REMARK   85  A    between atoms: _199  and  _200
REMARK   86  A    between atoms: _199  and  _202
REMARK   87  A    between atoms: _202  and  _203
REMARK   88  A    between atoms: _206  and  _208
REMARK   89  A    between atoms: _208  and  _209
REMARK   90  A    between atoms: _208  and  _211
REMARK   91  A    between atoms: _214  and  _216
REMARK   92  A    between atoms: _216  and  _217
REMARK   93  A    between atoms: _216  and  _219
REMARK   94  A    between atoms: _222  and  _224
REMARK   95  A    between atoms: _224  and  _225
REMARK   96  A    between atoms: _224  and  _227
REMARK   97  A    between atoms: _227  and  _228
REMARK   98  A    between atoms: _228  and  _229
REMARK   99  A    between atoms: _232  and  _234
REMARK  100  A    between atoms: _234  and  _235
REMARK  101  A    between atoms: _234  and  _237
REMARK  102  A    between atoms: _237  and  _238
REMARK  103  A    between atoms: _238  and  _239
REMARK  104  A    between atoms: _241  and  _243
REMARK  105  A    between atoms: _243  and  _244
REMARK  106  A    between atoms: _243  and  _246
REMARK  107  A    between atoms: _246  and  _247
REMARK  108  A    between atoms: _247  and  _248
REMARK  109  A    between atoms: _251  and  _253
REMARK  110  A    between atoms: _253  and  _254
REMARK  111  A    between atoms: _253  and  _256
REMARK  112  A    between atoms: _256  and  _257
REMARK  113  A    between atoms: _260  and  _262
REMARK  114  A    between atoms: _262  and  _263
REMARK  115  A    between atoms: _262  and  _265
REMARK  116  A    between atoms: _265  and  _266
REMARK  117  A    between atoms: _269  and  _271
REMARK  118  A    between atoms: _271  and  _272
REMARK  119  A    between atoms: _271  and  _274
REMARK  120  A    between atoms: _274  and  _275
REMARK  121  A    between atoms: _278  and  _280
REMARK  122  A    between atoms: _280  and  _281
REMARK  123  A    between atoms: _280  and  _283
REMARK  124  A    between atoms: _286  and  _288
REMARK  125  A    between atoms: _288  and  _289
REMARK  126  A    between atoms: _288  and  _291
REMARK  127  A    between atoms: _291  and  _292
REMARK  128  A    between atoms: _295  and  _297
REMARK  129  A    between atoms: _297  and  _298
REMARK  130  A    between atoms: _300  and  _302
REMARK  131  A    between atoms: _302  and  _303
REMARK  132  A    between atoms: _302  and  _305
REMARK  133  A    between atoms: _308  and  _309
REMARK  134  A    between atoms: _314  and  _316
REMARK  135  A    between atoms: _316  and  _317
REMARK  136  A    between atoms: _316  and  _319
REMARK  137  A    between atoms: _319  and  _320
REMARK  138  A    between atoms: _326  and  _328
REMARK  139  A    between atoms: _328  and  _329
REMARK  140  A    between atoms: _328  and  _331
REMARK  141  A    between atoms: _331  and  _332
REMARK  142  A    between atoms: _332  and  _333
REMARK  143  A    between atoms: _333  and  _334
REMARK  144  A    between atoms: _334  and  _335
REMARK  145  A    between atoms: _339  and  _341
REMARK  146  A    between atoms: _341  and  _342
REMARK  147  A    between atoms: _341  and  _344
REMARK  148  A    between atoms: _344  and  _345
REMARK  149  A    between atoms: _355  and  _357
REMARK  150  A    between atoms: _357  and  _358
REMARK  151  A    between atoms: _357  and  _360
REMARK  152  A    between atoms: _360  and  _361
REMARK  153  A    between atoms: _364  and  _366
REMARK  154  A    between atoms: _366  and  _367
REMARK  155  A    between atoms: _366  and  _369
REMARK  156  A    between atoms: _369  and  _370
REMARK  157  A    between atoms: _376  and  _378
REMARK  158  A    between atoms: _378  and  _379
REMARK  159  A    between atoms: _378  and  _381
REMARK  160  A    between atoms: _381  and  _382
REMARK  161  A    between atoms: _385  and  _387
REMARK  162  A    between atoms: _387  and  _388
REMARK  163  A    between atoms: _387  and  _390
REMARK  164  A    between atoms: _390  and  _391
REMARK  165  A    between atoms: _394  and  _396
REMARK  166  A    between atoms: _396  and  _397
REMARK  167  A    between atoms: _396  and  _399
REMARK  168  A    between atoms: _399  and  _400
REMARK  169  A    between atoms: _400  and  _401
REMARK  170  A    between atoms: _401  and  _402
REMARK  171  A    between atoms: _411  and  _413
REMARK  172  A    between atoms: _413  and  _414
REMARK  173  A    between atoms: _413  and  _416
REMARK  174  A    between atoms: _416  and  _417
REMARK  175  A    between atoms: _422  and  _424
REMARK  176  A    between atoms: _424  and  _425
REMARK  177  A    between atoms: _424  and  _427
REMARK  178  A    between atoms: _427  and  _428
REMARK  179  A    between atoms: _433  and  _435
REMARK  180  A    between atoms: _435  and  _436
REMARK  181  A    between atoms: _435  and  _438
REMARK  182  A    between atoms: _438  and  _439
REMARK  183  A    between atoms: _439  and  _440
REMARK  184  A    between atoms: _440  and  _441
REMARK  185  A    between atoms: _450  and  _452
REMARK  186  A    between atoms: _452  and  _453
REMARK  187  A    between atoms: _452  and  _455
REMARK  188  A    between atoms: _455  and  _456
REMARK  189  A    between atoms: _456  and  _457
REMARK  190  A    between atoms: _460  and  _462
REMARK  191  A    between atoms: _462  and  _463
REMARK  192  A    between atoms: _462  and  _465
REMARK  193  A    between atoms: _465  and  _466
REMARK  194  A    between atoms: _471  and  _472
REMARK  195  A    between atoms: _474  and  _476
REMARK  196  A    between atoms: _476  and  _477
REMARK  197  A    between atoms: _480  and  _482
REMARK  198  A    between atoms: _482  and  _483
REMARK  199  A    between atoms: _485  and  _487
REMARK  200  A    between atoms: _487  and  _488
REMARK  201  A    between atoms: _491  and  _493
REMARK  202  A    between atoms: _493  and  _494
REMARK  203  A    between atoms: _493  and  _496
REMARK  204  A    between atoms: _499  and  _501
REMARK  205  A    between atoms: _501  and  _502
REMARK  206  A    between atoms: _501  and  _504
REMARK  207  A    between atoms: _506  and  _508
REMARK  208  A    between atoms: _508  and  _509
REMARK  209  A    between atoms: _508  and  _511
REMARK  210  A    between atoms: _511  and  _512
REMARK  211  A    between atoms: _512  and  _513
REMARK                            x       y       z     vdW  Elec       q    Type
REMARK                         _______ _______ _______ _____ _____    ______ ____
ROOT
ATOM      1  CA  ARG A   1       5.101  -0.007 102.330  0.00  0.00    +0.145 C 
ENDROOT
BRANCH   1   2
ATOM      2  C   ARG A   1       5.160  -0.952 101.135  0.00  0.00    +0.238 C 
ATOM      3  N   HIS A   2       6.308  -1.570 100.882  0.00  0.00    -0.298 N 
ATOM      4  H   HIS A   2       7.126  -1.431 101.510  0.00  0.00    +0.150 HD
ATOM      5  O   ARG A   1       4.162  -1.127 100.441  0.00  0.00    -0.274 OA
BRANCH   3   6
ATOM      6  CA  HIS A   2       6.417  -2.446  99.718  0.00  0.00    +0.143 C 
BRANCH   6   7
ATOM      7  C   HIS A   2       6.543  -3.941  99.976  0.00  0.00    +0.227 C 
ATOM      8  O   HIS A   2       6.298  -4.747  99.078  0.00  0.00    -0.286 OA
ENDBRANCH   6   7
BRANCH   6   9
ATOM      9  CB  HIS A   2       7.561  -1.955  98.830  0.00  0.00    +0.075 C 
BRANCH   9  10
ATOM     10  CG  HIS A   2       7.350  -0.564  98.318  0.00  0.00    +0.082 A 
ATOM     11  CD2 HIS A   2       7.953   0.606  98.636  0.00  0.00    +0.115 A 
ATOM     12  NE2 HIS A   2       7.304   1.599  97.941  0.00  0.00    -0.221 NA
ATOM     13  CE1 HIS A   2       6.341   1.056  97.217  0.00  0.00    +0.199 A 
ATOM     14  ND1 HIS A   2       6.349  -0.248  97.425  0.00  0.00    -0.227 NA
ENDBRANCH   9  10
ENDBRANCH   6   9
ENDBRANCH   3   6
ENDBRANCH   1   2
BRANCH   1  15
ATOM     15  N   ARG A   1       5.560  -0.521 103.614  0.00  0.00    -0.238 NA
ATOM     16  H   ARG A   1       6.110   0.104 104.237  0.00  0.00    +0.142 HD
ENDBRANCH   1  15
BRANCH   1  17
ATOM     17  CB  ARG A   1       5.845   1.287 101.983  0.00  0.00    +0.030 C 
BRANCH  17  18
ATOM     18  CG  ARG A   1       5.315   1.967 100.730  0.00  0.00    +0.045 C 
BRANCH  18  19
ATOM     19  CD  ARG A   1       6.046   3.260 100.436  0.00  0.00    +0.174 C 
BRANCH  19  20
ATOM     20  NE  ARG A   1       5.892   4.229 101.512  0.00  0.00    -0.265 N 
ATOM     21  HE  ARG A   1       5.354   3.940 102.354  0.00  0.00    +0.259 HD
ATOM     22  CZ  ARG A   1       6.396   5.460 101.487  0.00  0.00    +0.342 C 
ATOM     23  NH2 ARG A   1       6.213   6.271 102.521  0.00  0.00    -0.292 N 
ATOM     24 HH21 ARG A   1       5.676   5.944 103.350  0.00  0.00    +0.255 HD
ATOM     25 HH22 ARG A   1       6.606   7.234 102.503  0.00  0.00    +0.255 HD
ATOM     26  NH1 ARG A   1       7.090   5.876 100.431  0.00  0.00    -0.292 N 
ATOM     27 HH11 ARG A   1       7.483   6.839 100.413  0.00  0.00    +0.255 HD
ATOM     28 HH12 ARG A   1       7.239   5.239  99.623  0.00  0.00    +0.255 HD
ENDBRANCH  19  20
ENDBRANCH  18  19
ENDBRANCH  17  18
ENDBRANCH   1  17
TORSDOF 10
REMARK  Name = ../refined-set-2016/1q1g/1q1g_pocket.pdb
REMARK  211 active torsions:
REMARK  status: ('A' for Active; 'I' for Inactive)
REMARK    1  A    between atoms: _1  and  _3
REMARK    2  A    between atoms: _3  and  _4
REMARK    3  A    between atoms: _3  and  _6
REMARK    4  A    between atoms: _9  and  _11
REMARK    5  A    between atoms: _11  and  _12
REMARK    6  A    between atoms: _14  and  _16
REMARK    7  A    between atoms: _16  and  _17
REMARK    8  A    between atoms: _16  and  _19
REMARK    9  A    between atoms: _19  and  _20
REMARK   10  A    between atoms: _23  and  _25
REMARK   11  A    between atoms: _25  and  _26
REMARK   12  A    between atoms: _25  and  _28
REMARK   13  A    between atoms: _28  and  _29
REMARK   14  A    between atoms: _34  and  _36
REMARK   15  A    between atoms: _36  and  _37
REMARK   16  A    between atoms: _39  and  _41
REMARK   17  A    between atoms: _41  and  _42
REMARK   18  A    between atoms: _41  and  _44
REMARK   19  A    between atoms: _47  and  _49
REMARK   20  A    between atoms: _49  and  _50
REMARK   21  A    between atoms: _52  and  _54
REMARK   22  A    between atoms: _54  and  _55
REMARK   23  A    between atoms: _54  and  _57
REMARK   24  A    between atoms: _57  and  _58
REMARK   25  A    between atoms: _60  and  _62
REMARK   26  A    between atoms: _62  and  _63
REMARK   27  A    between atoms: _62  and  _65
REMARK   28  A    between atoms: _65  and  _66
REMARK   29  A    between atoms: _66  and  _67
REMARK   30  A    between atoms: _67  and  _68
REMARK   31  A    between atoms: _77  and  _79
REMARK   32  A    between atoms: _79  and  _80
REMARK   33  A    between atoms: _82  and  _84
REMARK   34  A    between atoms: _84  and  _85
REMARK   35  A    between atoms: _84  and  _87
REMARK   36  A    between atoms: _87  and  _88
REMARK   37  A    between atoms: _90  and  _92
REMARK   38  A    between atoms: _92  and  _93
REMARK   39  A    between atoms: _92  and  _95
REMARK   40  A    between atoms: _97  and  _99
REMARK   41  A    between atoms: _99  and  _100
REMARK   42  A    between atoms: _102  and  _104
REMARK   43  A    between atoms: _104  and  _105
REMARK   44  A    between atoms: _104  and  _107
REMARK   45  A    between atoms: _107  and  _108
REMARK   46  A    between atoms: _110  and  _112
REMARK   47  A    between atoms: _112  and  _113
REMARK   48  A    between atoms: _112  and  _115
REMARK   49  A    between atoms: _115  and  _116
REMARK   50  A    between atoms: _119  and  _121
REMARK   51  A    between atoms: _121  and  _122
REMARK   52  A    between atoms: _121  and  _124
REMARK   53  A    between atoms: _124  and  _125
REMARK   54  A    between atoms: _127  and  _129
REMARK   55  A    between atoms: _129  and  _130
REMARK   56  A    between atoms: _129  and  _132
REMARK   57  A    between atoms: _135  and  _137
REMARK   58  A    between atoms: _137  and  _138
REMARK   59  A    between atoms: _137  and  _140
REMARK   60  A    between atoms: _140  and  _141
REMARK   61  A    between atoms: _143  and  _145
REMARK   62  A    between atoms: _145  and  _146
REMARK   63  A    between atoms: _145  and  _148
REMARK   64  A    between atoms: _148  and  _149
REMARK   65  A    between atoms: _151  and  _153
REMARK   66  A    between atoms: _153  and  _154
REMARK   67  A    between atoms: _153  and  _156
REMARK   68  A    between atoms: _156  and  _157
REMARK   69  A    between atoms: _160  and  _162
REMARK   70  A    between atoms: _162  and  _163
REMARK   71  A    between atoms: _162  and  _165
REMARK   72  A    between atoms: _165  and  _166
REMARK   73  A    between atoms: _166  and  _167
REMARK   74  A    between atoms: _169  and  _171
REMARK   75  A    between atoms: _171  and  _172
REMARK   76  A    between atoms: _171  and  _174
REMARK   77  A    between atoms: _174  and  _175
REMARK   78  A    between atoms: _180  and  _181
REMARK   79  A    between atoms: _183  and  _185
REMARK   80  A    between atoms: _185  and  _186
REMARK   81  A    between atoms: _185  and  _188
REMARK   82  A    between atoms: _188  and  _189
REMARK   83  A    between atoms: _194  and  _195
REMARK   84  A    between atoms: _197  and  _199
REMARK   85  A    between atoms: _199  and  _200
REMARK   86  A    between atoms: _199  and  _202
REMARK   87  A    between atoms: _202  and  _203
REMARK   88  A    between atoms: _206  and  _208
REMARK   89  A    between atoms: _208  and  _209
REMARK   90  A    between atoms: _208  and  _211
REMARK   91  A    between atoms: _214  and  _216
REMARK   92  A    between atoms: _216  and  _217
REMARK   93  A    between atoms: _216  and  _219
REMARK   94  A    between atoms: _222  and  _224
REMARK   95  A    between atoms: _224  and  _225
REMARK   96  A    between atoms: _224  and  _227
REMARK   97  A    between atoms: _227  and  _228
REMARK   98  A    between atoms: _228  and  _229
REMARK   99  A    between atoms: _232  and  _234
REMARK  100  A    between atoms: _234  and  _235
REMARK  101  A    between atoms: _234  and  _237
REMARK  102  A    between atoms: _237  and  _238
REMARK  103  A    between atoms: _238  and  _239
REMARK  104  A    between atoms: _241  and  _243
REMARK  105  A    between atoms: _243  and  _244
REMARK  106  A    between atoms: _243  and  _246
REMARK  107  A    between atoms: _246  and  _247
REMARK  108  A    between atoms: _247  and  _248
REMARK  109  A    between atoms: _251  and  _253
REMARK  110  A    between atoms: _253  and  _254
REMARK  111  A    between atoms: _253  and  _256
REMARK  112  A    between atoms: _256  and  _257
REMARK  113  A    between atoms: _260  and  _262
REMARK  114  A    between atoms: _262  and  _263
REMARK  115  A    between atoms: _262  and  _265
REMARK  116  A    between atoms: _265  and  _266
REMARK  117  A    between atoms: _269  and  _271
REMARK  118  A    between atoms: _271  and  _272
REMARK  119  A    between atoms: _271  and  _274
REMARK  120  A    between atoms: _274  and  _275
REMARK  121  A    between atoms: _278  and  _280
REMARK  122  A    between atoms: _280  and  _281
REMARK  123  A    between atoms: _280  and  _283
REMARK  124  A    between atoms: _286  and  _288
REMARK  125  A    between atoms: _288  and  _289
REMARK  126  A    between atoms: _288  and  _291
REMARK  127  A    between atoms: _291  and  _292
REMARK  128  A    between atoms: _295  and  _297
REMARK  129  A    between atoms: _297  and  _298
REMARK  130  A    between atoms: _300  and  _302
REMARK  131  A    between atoms: _302  and  _303
REMARK  132  A    between atoms: _302  and  _305
REMARK  133  A    between atoms: _308  and  _309
REMARK  134  A    between atoms: _314  and  _316
REMARK  135  A    between atoms: _316  and  _317
REMARK  136  A    between atoms: _316  and  _319
REMARK  137  A    between atoms: _319  and  _320
REMARK  138  A    between atoms: _326  and  _328
REMARK  139  A    between atoms: _328  and  _329
REMARK  140  A    between atoms: _328  and  _331
REMARK  141  A    between atoms: _331  and  _332
REMARK  142  A    between atoms: _332  and  _333
REMARK  143  A    between atoms: _333  and  _334
REMARK  144  A    between atoms: _334  and  _335
REMARK  145  A    between atoms: _339  and  _341
REMARK  146  A    between atoms: _341  and  _342
REMARK  147  A    between atoms: _341  and  _344
REMARK  148  A    between atoms: _344  and  _345
REMARK  149  A    between atoms: _355  and  _357
REMARK  150  A    between atoms: _357  and  _358
REMARK  151  A    between atoms: _357  and  _360
REMARK  152  A    between atoms: _360  and  _361
REMARK  153  A    between atoms: _364  and  _366
REMARK  154  A    between atoms: _366  and  _367
REMARK  155  A    between atoms: _366  and  _369
REMARK  156  A    between atoms: _369  and  _370
REMARK  157  A    between atoms: _376  and  _378
REMARK  158  A    between atoms: _378  and  _379
REMARK  159  A    between atoms: _378  and  _381
REMARK  160  A    between atoms: _381  and  _382
REMARK  161  A    between atoms: _385  and  _387
REMARK  162  A    between atoms: _387  and  _388
REMARK  163  A    between atoms: _387  and  _390
REMARK  164  A    between atoms: _390  and  _391
REMARK  165  A    between atoms: _394  and  _396
REMARK  166  A    between atoms: _396  and  _397
REMARK  167  A    between atoms: _396  and  _399
REMARK  168  A    between atoms: _399  and  _400
REMARK  169  A    between atoms: _400  and  _401
REMARK  170  A    between atoms: _401  and  _402
REMARK  171  A    between atoms: _411  and  _413
REMARK  172  A    between atoms: _413  and  _414
REMARK  173  A    between atoms: _413  and  _416
REMARK  174  A    between atoms: _416  and  _417
REMARK  175  A    between atoms: _422  and  _424
REMARK  176  A    between atoms: _424  and  _425
REMARK  177  A    between atoms: _424  and  _427
REMARK  178  A    between atoms: _427  and  _428
REMARK  179  A    between atoms: _433  and  _435
REMARK  180  A    between atoms: _435  and  _436
REMARK  181  A    between atoms: _435  and  _438
REMARK  182  A    between atoms: _438  and  _439
REMARK  183  A    between atoms: _439  and  _440
REMARK  184  A    between atoms: _440  and  _441
REMARK  185  A    between atoms: _450  and  _452
REMARK  186  A    between atoms: _452  and  _453
REMARK  187  A    between atoms: _452  and  _455
REMARK  188  A    between atoms: _455  and  _456
REMARK  189  A    between atoms: _456  and  _457
REMARK  190  A    between atoms: _460  and  _462
REMARK  191  A    between atoms: _462  and  _463
REMARK  192  A    between atoms: _462  and  _465
REMARK  193  A    between atoms: _465  and  _466
REMARK  194  A    between atoms: _471  and  _472
REMARK  195  A    between atoms: _474  and  _476
REMARK  196  A    between atoms: _476  and  _477
REMARK  197  A    between atoms: _480  and  _482
REMARK  198  A    between atoms: _482  and  _483
REMARK  199  A    between atoms: _485  and  _487
REMARK  200  A    between atoms: _487  and  _488
REMARK  201  A    between atoms: _491  and  _493
REMARK  202  A    between atoms: _493  and  _494
REMARK  203  A    between atoms: _493  and  _496
REMARK  204  A    between atoms: _499  and  _501
REMARK  205  A    between atoms: _501  and  _502
REMARK  206  A    between atoms: _501  and  _504
REMARK  207  A    between atoms: _506  and  _508
REMARK  208  A    between atoms: _508  and  _509
REMARK  209  A    between atoms: _508  and  _511
REMARK  210  A    between atoms: _511  and  _512
REMARK  211  A    between atoms: _512  and  _513
REMARK                            x       y       z     vdW  Elec       q    Type
REMARK                         _______ _______ _______ _____ _____    ______ ____
ROOT
ATOM      1  CA  ARG A   2       5.795  -7.289  93.208  0.00  0.00    +0.149 C 
ENDROOT
BRANCH   1   4
ATOM      2  C   ASN A   1       5.147  -7.764  95.495  0.00  0.00    +0.239 C 
ATOM      3  O   ASN A   1       6.321  -7.850  95.851  0.00  0.00    -0.274 OA
ATOM      4  N   ARG A   2       4.792  -7.483  94.245  0.00  0.00    -0.297 N 
ATOM      5  H   ARG A   2       3.784  -7.401  94.005  0.00  0.00    +0.150 HD
BRANCH   2   6
ATOM      6  CA  ASN A   1       4.024  -7.976  96.503  0.00  0.00    +0.154 C 
BRANCH   6   7
ATOM      7  N   ASN A   1       4.305  -9.220  97.207  0.00  0.00    -0.238 NA
ATOM      8  H   ASN A   1       5.227  -9.329  97.675  0.00  0.00    +0.142 HD
ENDBRANCH   6   7
BRANCH   6   9
ATOM      9  CB  ASN A   1       3.996  -6.811  97.491  0.00  0.00    +0.111 C 
BRANCH   9  10
ATOM     10  CG  ASN A   1       3.512  -5.523  96.857  0.00  0.00    +0.221 C 
ATOM     11  OD1 ASN A   1       3.864  -4.427  97.299  0.00  0.00    -0.275 OA
ATOM     12  ND2 ASN A   1       2.685  -5.648  95.823  0.00  0.00    -0.329 N 
ATOM     13 HD21 ASN A   1       2.415  -6.594  95.484  0.00  0.00    +0.145 HD
ATOM     14 HD22 ASN A   1       2.308  -4.800  95.353  0.00  0.00    +0.145 HD
ENDBRANCH   9  10
ENDBRANCH   6   9
ENDBRANCH   2   6
ENDBRANCH   1   4
BRANCH   1  15
ATOM     15  C   ARG A   2       6.738  -8.488  93.262  0.00  0.00    +0.241 C 
ATOM     16  O   ARG A   2       6.282  -9.636  93.299  0.00  0.00    -0.273 OA
ATOM     17  N   GLU A   3       8.043  -8.233  93.284  0.00  0.00    -0.297 N 
ATOM     18  H   GLU A   3       8.377  -7.248  93.265  0.00  0.00    +0.150 HD
BRANCH  17  19
ATOM     19  CA  GLU A   3       9.010  -9.325  93.334  0.00  0.00    +0.149 C 
BRANCH  19  20
ATOM     20  C   GLU A   3       9.428  -9.665  94.761  0.00  0.00    +0.241 C 
ATOM     21  N   TYR A   4       8.804  -9.006  95.730  0.00  0.00    -0.298 N 
ATOM     22  H   TYR A   4       8.070  -8.313  95.478  0.00  0.00    +0.150 HD
ATOM     23  O   GLU A   3      10.290 -10.518  94.975  0.00  0.00    -0.273 OA
BRANCH  21  24
ATOM     24  CA  TYR A   4       9.116  -9.224  97.132  0.00  0.00    +0.141 C 
BRANCH  24  25
ATOM     25  C   TYR A   4       8.173 -10.235  97.788  0.00  0.00    +0.227 C 
ATOM     26  O   TYR A   4       7.038  -9.899  98.140  0.00  0.00    -0.286 OA
ENDBRANCH  24  25
BRANCH  24  27
ATOM     27  CB  TYR A   4       9.039  -7.899  97.893  0.00  0.00    +0.054 C 
BRANCH  27  28
ATOM     28  CG  TYR A   4       9.812  -6.767  97.252  0.00  0.00    -0.020 A 
ATOM     29  CD2 TYR A   4      11.184  -6.872  97.018  0.00  0.00    -0.001 A 
ATOM     30  CE2 TYR A   4      11.904  -5.818  96.444  0.00  0.00    +0.036 A 
ATOM     31  CZ  TYR A   4      11.244  -4.644  96.100  0.00  0.00    +0.134 A 
ATOM     32  CE1 TYR A   4       9.879  -4.519  96.321  0.00  0.00    +0.036 A 
ATOM     33  CD1 TYR A   4       9.173  -5.580  96.894  0.00  0.00    -0.001 A 
BRANCH  31  34
ATOM     34  OH  TYR A   4      11.939  -3.590  95.551  0.00  0.00    -0.506 OA
ATOM     35  HH  TYR A   4      12.638  -3.291  96.185  0.00  0.00    +0.292 HD
ENDBRANCH  31  34
ENDBRANCH  27  28
ENDBRANCH  24  27
ENDBRANCH  21  24
ENDBRANCH  19  20
BRANCH  19  36
ATOM     36  CB  GLU A   3      10.257  -8.996  92.502  0.00  0.00    +0.041 C 
BRANCH  36  37
ATOM     37  CG  GLU A   3      11.031  -7.744  92.916  0.00  0.00    +0.116 C 
BRANCH  37  38
ATOM     38  CD  GLU A   3      10.587  -6.492  92.164  0.00  0.00    +0.365 C 
ATOM     39  OE2 GLU A   3      11.425  -5.579  91.980  0.00  0.00    -0.246 OA
ATOM     40  OE1 GLU A   3       9.405  -6.412  91.765  0.00  0.00    -0.246 OA
ENDBRANCH  37  38
ENDBRANCH  36  37
ENDBRANCH  19  36
ENDBRANCH  17  19
ENDBRANCH   1  15
BRANCH   1  41
ATOM     41  CB  ARG A   2       6.562  -5.981  93.444  0.00  0.00    +0.033 C 
BRANCH  41  42
ATOM     42  CG  ARG A   2       5.768  -4.713  93.119  0.00  0.00    +0.045 C 
BRANCH  42  43
ATOM     43  CD  ARG A   2       6.426  -3.472  93.712  0.00  0.00    +0.174 C 
BRANCH  43  44
ATOM     44  NE  ARG A   2       5.744  -2.234  93.337  0.00  0.00    -0.265 N 
ATOM     45  HE  ARG A   2       5.154  -1.769  94.056  0.00  0.00    +0.259 HD
ATOM     46  CZ  ARG A   2       5.827  -1.662  92.137  0.00  0.00    +0.342 C 
ATOM     47  NH2 ARG A   2       5.175  -0.536  91.892  0.00  0.00    -0.292 N 
ATOM     48 HH21 ARG A   2       4.597  -0.097  92.637  0.00  0.00    +0.255 HD
ATOM     49 HH22 ARG A   2       5.241  -0.090  90.955  0.00  0.00    +0.255 HD
ATOM     50  NH1 ARG A   2       6.566  -2.208  91.181  0.00  0.00    -0.292 N 
ATOM     51 HH11 ARG A   2       7.086  -3.089  91.365  0.00  0.00    +0.255 HD
ATOM     52 HH12 ARG A   2       6.625  -1.755  90.247  0.00  0.00    +0.255 HD
ENDBRANCH  43  44
ENDBRANCH  42  43
ENDBRANCH  41  42
ENDBRANCH   1  41
TORSDOF 20
REMARK  Name = ../refined-set-2016/1q1g/1q1g_pocket.pdb
REMARK  211 active torsions:
REMARK  status: ('A' for Active; 'I' for Inactive)
REMARK    1  A    between atoms: _1  and  _3
REMARK    2  A    between atoms: _3  and  _4
REMARK    3  A    between atoms: _3  and  _6
REMARK    4  A    between atoms: _9  and  _11
REMARK    5  A    between atoms: _11  and  _12
REMARK    6  A    between atoms: _14  and  _16
REMARK    7  A    between atoms: _16  and  _17
REMARK    8  A    between atoms: _16  and  _19
REMARK    9  A    between atoms: _19  and  _20
REMARK   10  A    between atoms: _23  and  _25
REMARK   11  A    between atoms: _25  and  _26
REMARK   12  A    between atoms: _25  and  _28
REMARK   13  A    between atoms: _28  and  _29
REMARK   14  A    between atoms: _34  and  _36
REMARK   15  A    between atoms: _36  and  _37
REMARK   16  A    between atoms: _39  and  _41
REMARK   17  A    between atoms: _41  and  _42
REMARK   18  A    between atoms: _41  and  _44
REMARK   19  A    between atoms: _47  and  _49
REMARK   20  A    between atoms: _49  and  _50
REMARK   21  A    between atoms: _52  and  _54
REMARK   22  A    between atoms: _54  and  _55
REMARK   23  A    between atoms: _54  and  _57
REMARK   24  A    between atoms: _57  and  _58
REMARK   25  A    between atoms: _60  and  _62
REMARK   26  A    between atoms: _62  and  _63
REMARK   27  A    between atoms: _62  and  _65
REMARK   28  A    between atoms: _65  and  _66
REMARK   29  A    between atoms: _66  and  _67
REMARK   30  A    between atoms: _67  and  _68
REMARK   31  A    between atoms: _77  and  _79
REMARK   32  A    between atoms: _79  and  _80
REMARK   33  A    between atoms: _82  and  _84
REMARK   34  A    between atoms: _84  and  _85
REMARK   35  A    between atoms: _84  and  _87
REMARK   36  A    between atoms: _87  and  _88
REMARK   37  A    between atoms: _90  and  _92
REMARK   38  A    between atoms: _92  and  _93
REMARK   39  A    between atoms: _92  and  _95
REMARK   40  A    between atoms: _97  and  _99
REMARK   41  A    between atoms: _99  and  _100
REMARK   42  A    between atoms: _102  and  _104
REMARK   43  A    between atoms: _104  and  _105
REMARK   44  A    between atoms: _104  and  _107
REMARK   45  A    between atoms: _107  and  _108
REMARK   46  A    between atoms: _110  and  _112
REMARK   47  A    between atoms: _112  and  _113
REMARK   48  A    between atoms: _112  and  _115
REMARK   49  A    between atoms: _115  and  _116
REMARK   50  A    between atoms: _119  and  _121
REMARK   51  A    between atoms: _121  and  _122
REMARK   52  A    between atoms: _121  and  _124
REMARK   53  A    between atoms: _124  and  _125
REMARK   54  A    between atoms: _127  and  _129
REMARK   55  A    between atoms: _129  and  _130
REMARK   56  A    between atoms: _129  and  _132
REMARK   57  A    between atoms: _135  and  _137
REMARK   58  A    between atoms: _137  and  _138
REMARK   59  A    between atoms: _137  and  _140
REMARK   60  A    between atoms: _140  and  _141
REMARK   61  A    between atoms: _143  and  _145
REMARK   62  A    between atoms: _145  and  _146
REMARK   63  A    between atoms: _145  and  _148
REMARK   64  A    between atoms: _148  and  _149
REMARK   65  A    between atoms: _151  and  _153
REMARK   66  A    between atoms: _153  and  _154
REMARK   67  A    between atoms: _153  and  _156
REMARK   68  A    between atoms: _156  and  _157
REMARK   69  A    between atoms: _160  and  _162
REMARK   70  A    between atoms: _162  and  _163
REMARK   71  A    between atoms: _162  and  _165
REMARK   72  A    between atoms: _165  and  _166
REMARK   73  A    between atoms: _166  and  _167
REMARK   74  A    between atoms: _169  and  _171
REMARK   75  A    between atoms: _171  and  _172
REMARK   76  A    between atoms: _171  and  _174
REMARK   77  A    between atoms: _174  and  _175
REMARK   78  A    between atoms: _180  and  _181
REMARK   79  A    between atoms: _183  and  _185
REMARK   80  A    between atoms: _185  and  _186
REMARK   81  A    between atoms: _185  and  _188
REMARK   82  A    between atoms: _188  and  _189
REMARK   83  A    between atoms: _194  and  _195
REMARK   84  A    between atoms: _197  and  _199
REMARK   85  A    between atoms: _199  and  _200
REMARK   86  A    between atoms: _199  and  _202
REMARK   87  A    between atoms: _202  and  _203
REMARK   88  A    between atoms: _206  and  _208
REMARK   89  A    between atoms: _208  and  _209
REMARK   90  A    between atoms: _208  and  _211
REMARK   91  A    between atoms: _214  and  _216
REMARK   92  A    between atoms: _216  and  _217
REMARK   93  A    between atoms: _216  and  _219
REMARK   94  A    between atoms: _222  and  _224
REMARK   95  A    between atoms: _224  and  _225
REMARK   96  A    between atoms: _224  and  _227
REMARK   97  A    between atoms: _227  and  _228
REMARK   98  A    between atoms: _228  and  _229
REMARK   99  A    between atoms: _232  and  _234
REMARK  100  A    between atoms: _234  and  _235
REMARK  101  A    between atoms: _234  and  _237
REMARK  102  A    between atoms: _237  and  _238
REMARK  103  A    between atoms: _238  and  _239
REMARK  104  A    between atoms: _241  and  _243
REMARK  105  A    between atoms: _243  and  _244
REMARK  106  A    between atoms: _243  and  _246
REMARK  107  A    between atoms: _246  and  _247
REMARK  108  A    between atoms: _247  and  _248
REMARK  109  A    between atoms: _251  and  _253
REMARK  110  A    between atoms: _253  and  _254
REMARK  111  A    between atoms: _253  and  _256
REMARK  112  A    between atoms: _256  and  _257
REMARK  113  A    between atoms: _260  and  _262
REMARK  114  A    between atoms: _262  and  _263
REMARK  115  A    between atoms: _262  and  _265
REMARK  116  A    between atoms: _265  and  _266
REMARK  117  A    between atoms: _269  and  _271
REMARK  118  A    between atoms: _271  and  _272
REMARK  119  A    between atoms: _271  and  _274
REMARK  120  A    between atoms: _274  and  _275
REMARK  121  A    between atoms: _278  and  _280
REMARK  122  A    between atoms: _280  and  _281
REMARK  123  A    between atoms: _280  and  _283
REMARK  124  A    between atoms: _286  and  _288
REMARK  125  A    between atoms: _288  and  _289
REMARK  126  A    between atoms: _288  and  _291
REMARK  127  A    between atoms: _291  and  _292
REMARK  128  A    between atoms: _295  and  _297
REMARK  129  A    between atoms: _297  and  _298
REMARK  130  A    between atoms: _300  and  _302
REMARK  131  A    between atoms: _302  and  _303
REMARK  132  A    between atoms: _302  and  _305
REMARK  133  A    between atoms: _308  and  _309
REMARK  134  A    between atoms: _314  and  _316
REMARK  135  A    between atoms: _316  and  _317
REMARK  136  A    between atoms: _316  and  _319
REMARK  137  A    between atoms: _319  and  _320
REMARK  138  A    between atoms: _326  and  _328
REMARK  139  A    between atoms: _328  and  _329
REMARK  140  A    between atoms: _328  and  _331
REMARK  141  A    between atoms: _331  and  _332
REMARK  142  A    between atoms: _332  and  _333
REMARK  143  A    between atoms: _333  and  _334
REMARK  144  A    between atoms: _334  and  _335
REMARK  145  A    between atoms: _339  and  _341
REMARK  146  A    between atoms: _341  and  _342
REMARK  147  A    between atoms: _341  and  _344
REMARK  148  A    between atoms: _344  and  _345
REMARK  149  A    between atoms: _355  and  _357
REMARK  150  A    between atoms: _357  and  _358
REMARK  151  A    between atoms: _357  and  _360
REMARK  152  A    between atoms: _360  and  _361
REMARK  153  A    between atoms: _364  and  _366
REMARK  154  A    between atoms: _366  and  _367
REMARK  155  A    between atoms: _366  and  _369
REMARK  156  A    between atoms: _369  and  _370
REMARK  157  A    between atoms: _376  and  _378
REMARK  158  A    between atoms: _378  and  _379
REMARK  159  A    between atoms: _378  and  _381
REMARK  160  A    between atoms: _381  and  _382
REMARK  161  A    between atoms: _385  and  _387
REMARK  162  A    between atoms: _387  and  _388
REMARK  163  A    between atoms: _387  and  _390
REMARK  164  A    between atoms: _390  and  _391
REMARK  165  A    between atoms: _394  and  _396
REMARK  166  A    between atoms: _396  and  _397
REMARK  167  A    between atoms: _396  and  _399
REMARK  168  A    between atoms: _399  and  _400
REMARK  169  A    between atoms: _400  and  _401
REMARK  170  A    between atoms: _401  and  _402
REMARK  171  A    between atoms: _411  and  _413
REMARK  172  A    between atoms: _413  and  _414
REMARK  173  A    between atoms: _413  and  _416
REMARK  174  A    between atoms: _416  and  _417
REMARK  175  A    between atoms: _422  and  _424
REMARK  176  A    between atoms: _424  and  _425
REMARK  177  A    between atoms: _424  and  _427
REMARK  178  A    between atoms: _427  and  _428
REMARK  179  A    between atoms: _433  and  _435
REMARK  180  A    between atoms: _435  and  _436
REMARK  181  A    between atoms: _435  and  _438
REMARK  182  A    between atoms: _438  and  _439
REMARK  183  A    between atoms: _439  and  _440
REMARK  184  A    between atoms: _440  and  _441
REMARK  185  A    between atoms: _450  and  _452
REMARK  186  A    between atoms: _452  and  _453
REMARK  187  A    between atoms: _452  and  _455
REMARK  188  A    between atoms: _455  and  _456
REMARK  189  A    between atoms: _456  and  _457
REMARK  190  A    between atoms: _460  and  _462
REMARK  191  A    between atoms: _462  and  _463
REMARK  192  A    between atoms: _462  and  _465
REMARK  193  A    between atoms: _465  and  _466
REMARK  194  A    between atoms: _471  and  _472
REMARK  195  A    between atoms: _474  and  _476
REMARK  196  A    between atoms: _476  and  _477
REMARK  197  A    between atoms: _480  and  _482
REMARK  198  A    between atoms: _482  and  _483
REMARK  199  A    between atoms: _485  and  _487
REMARK  200  A    between atoms: _487  and  _488
REMARK  201  A    between atoms: _491  and  _493
REMARK  202  A    between atoms: _493  and  _494
REMARK  203  A    between atoms: _493  and  _496
REMARK  204  A    between atoms: _499  and  _501
REMARK  205  A    between atoms: _501  and  _502
REMARK  206  A    between atoms: _501  and  _504
REMARK  207  A    between atoms: _506  and  _508
REMARK  208  A    between atoms: _508  and  _509
REMARK  209  A    between atoms: _508  and  _511
REMARK  210  A    between atoms: _511  and  _512
REMARK  211  A    between atoms: _512  and  _513
REMARK                            x       y       z     vdW  Elec       q    Type
REMARK                         _______ _______ _______ _____ _____    ______ ____
ROOT
ATOM      1  C   ALA A   1      16.863  -0.964  94.006  0.00  0.00    +0.238 C 
ATOM      2  O   ALA A   1      16.236  -0.543  94.982  0.00  0.00    -0.274 OA
ATOM      3  N   GLY A   2      16.523  -2.070  93.361  0.00  0.00    -0.297 N 
ATOM      4  H   GLY A   2      17.076  -2.385  92.539  0.00  0.00    +0.150 HD
ENDROOT
BRANCH   1   5
ATOM      5  CA  ALA A   1      18.094  -0.220  93.481  0.00  0.00    +0.145 C 
ATOM      6  CB  ALA A   1      17.733   0.616  92.264  0.00  0.00    +0.028 C 
BRANCH   5   7
ATOM      7  N   ALA A   1      19.163  -1.157  93.146  0.00  0.00    -0.238 NA
ATOM      8  H   ALA A   1      19.501  -1.233  92.165  0.00  0.00    +0.142 HD
ENDBRANCH   5   7
ENDBRANCH   1   5
BRANCH   3   9
ATOM      9  CA  GLY A   2      15.377  -2.840  93.805  0.00  0.00    +0.163 C 
BRANCH   9  10
ATOM     10  C   GLY A   2      15.550  -3.439  95.190  0.00  0.00    +0.229 C 
ATOM     11  O   GLY A   2      14.690  -3.275  96.060  0.00  0.00    -0.286 OA
ENDBRANCH   9  10
ENDBRANCH   3   9
TORSDOF 4
REMARK  Name = ../refined-set-2016/1q1g/1q1g_pocket.pdb
REMARK  211 active torsions:
REMARK  status: ('A' for Active; 'I' for Inactive)
REMARK    1  A    between atoms: _1  and  _3
REMARK    2  A    between atoms: _3  and  _4
REMARK    3  A    between atoms: _3  and  _6
REMARK    4  A    between atoms: _9  and  _11
REMARK    5  A    between atoms: _11  and  _12
REMARK    6  A    between atoms: _14  and  _16
REMARK    7  A    between atoms: _16  and  _17
REMARK    8  A    between atoms: _16  and  _19
REMARK    9  A    between atoms: _19  and  _20
REMARK   10  A    between atoms: _23  and  _25
REMARK   11  A    between atoms: _25  and  _26
REMARK   12  A    between atoms: _25  and  _28
REMARK   13  A    between atoms: _28  and  _29
REMARK   14  A    between atoms: _34  and  _36
REMARK   15  A    between atoms: _36  and  _37
REMARK   16  A    between atoms: _39  and  _41
REMARK   17  A    between atoms: _41  and  _42
REMARK   18  A    between atoms: _41  and  _44
REMARK   19  A    between atoms: _47  and  _49
REMARK   20  A    between atoms: _49  and  _50
REMARK   21  A    between atoms: _52  and  _54
REMARK   22  A    between atoms: _54  and  _55
REMARK   23  A    between atoms: _54  and  _57
REMARK   24  A    between atoms: _57  and  _58
REMARK   25  A    between atoms: _60  and  _62
REMARK   26  A    between atoms: _62  and  _63
REMARK   27  A    between atoms: _62  and  _65
REMARK   28  A    between atoms: _65  and  _66
REMARK   29  A    between atoms: _66  and  _67
REMARK   30  A    between atoms: _67  and  _68
REMARK   31  A    between atoms: _77  and  _79
REMARK   32  A    between atoms: _79  and  _80
REMARK   33  A    between atoms: _82  and  _84
REMARK   34  A    between atoms: _84  and  _85
REMARK   35  A    between atoms: _84  and  _87
REMARK   36  A    between atoms: _87  and  _88
REMARK   37  A    between atoms: _90  and  _92
REMARK   38  A    between atoms: _92  and  _93
REMARK   39  A    between atoms: _92  and  _95
REMARK   40  A    between atoms: _97  and  _99
REMARK   41  A    between atoms: _99  and  _100
REMARK   42  A    between atoms: _102  and  _104
REMARK   43  A    between atoms: _104  and  _105
REMARK   44  A    between atoms: _104  and  _107
REMARK   45  A    between atoms: _107  and  _108
REMARK   46  A    between atoms: _110  and  _112
REMARK   47  A    between atoms: _112  and  _113
REMARK   48  A    between atoms: _112  and  _115
REMARK   49  A    between atoms: _115  and  _116
REMARK   50  A    between atoms: _119  and  _121
REMARK   51  A    between atoms: _121  and  _122
REMARK   52  A    between atoms: _121  and  _124
REMARK   53  A    between atoms: _124  and  _125
REMARK   54  A    between atoms: _127  and  _129
REMARK   55  A    between atoms: _129  and  _130
REMARK   56  A    between atoms: _129  and  _132
REMARK   57  A    between atoms: _135  and  _137
REMARK   58  A    between atoms: _137  and  _138
REMARK   59  A    between atoms: _137  and  _140
REMARK   60  A    between atoms: _140  and  _141
REMARK   61  A    between atoms: _143  and  _145
REMARK   62  A    between atoms: _145  and  _146
REMARK   63  A    between atoms: _145  and  _148
REMARK   64  A    between atoms: _148  and  _149
REMARK   65  A    between atoms: _151  and  _153
REMARK   66  A    between atoms: _153  and  _154
REMARK   67  A    between atoms: _153  and  _156
REMARK   68  A    between atoms: _156  and  _157
REMARK   69  A    between atoms: _160  and  _162
REMARK   70  A    between atoms: _162  and  _163
REMARK   71  A    between atoms: _162  and  _165
REMARK   72  A    between atoms: _165  and  _166
REMARK   73  A    between atoms: _166  and  _167
REMARK   74  A    between atoms: _169  and  _171
REMARK   75  A    between atoms: _171  and  _172
REMARK   76  A    between atoms: _171  and  _174
REMARK   77  A    between atoms: _174  and  _175
REMARK   78  A    between atoms: _180  and  _181
REMARK   79  A    between atoms: _183  and  _185
REMARK   80  A    between atoms: _185  and  _186
REMARK   81  A    between atoms: _185  and  _188
REMARK   82  A    between atoms: _188  and  _189
REMARK   83  A    between atoms: _194  and  _195
REMARK   84  A    between atoms: _197  and  _199
REMARK   85  A    between atoms: _199  and  _200
REMARK   86  A    between atoms: _199  and  _202
REMARK   87  A    between atoms: _202  and  _203
REMARK   88  A    between atoms: _206  and  _208
REMARK   89  A    between atoms: _208  and  _209
REMARK   90  A    between atoms: _208  and  _211
REMARK   91  A    between atoms: _214  and  _216
REMARK   92  A    between atoms: _216  and  _217
REMARK   93  A    between atoms: _216  and  _219
REMARK   94  A    between atoms: _222  and  _224
REMARK   95  A    between atoms: _224  and  _225
REMARK   96  A    between atoms: _224  and  _227
REMARK   97  A    between atoms: _227  and  _228
REMARK   98  A    between atoms: _228  and  _229
REMARK   99  A    between atoms: _232  and  _234
REMARK  100  A    between atoms: _234  and  _235
REMARK  101  A    between atoms: _234  and  _237
REMARK  102  A    between atoms: _237  and  _238
REMARK  103  A    between atoms: _238  and  _239
REMARK  104  A    between atoms: _241  and  _243
REMARK  105  A    between atoms: _243  and  _244
REMARK  106  A    between atoms: _243  and  _246
REMARK  107  A    between atoms: _246  and  _247
REMARK  108  A    between atoms: _247  and  _248
REMARK  109  A    between atoms: _251  and  _253
REMARK  110  A    between atoms: _253  and  _254
REMARK  111  A    between atoms: _253  and  _256
REMARK  112  A    between atoms: _256  and  _257
REMARK  113  A    between atoms: _260  and  _262
REMARK  114  A    between atoms: _262  and  _263
REMARK  115  A    between atoms: _262  and  _265
REMARK  116  A    between atoms: _265  and  _266
REMARK  117  A    between atoms: _269  and  _271
REMARK  118  A    between atoms: _271  and  _272
REMARK  119  A    between atoms: _271  and  _274
REMARK  120  A    between atoms: _274  and  _275
REMARK  121  A    between atoms: _278  and  _280
REMARK  122  A    between atoms: _280  and  _281
REMARK  123  A    between atoms: _280  and  _283
REMARK  124  A    between atoms: _286  and  _288
REMARK  125  A    between atoms: _288  and  _289
REMARK  126  A    between atoms: _288  and  _291
REMARK  127  A    between atoms: _291  and  _292
REMARK  128  A    between atoms: _295  and  _297
REMARK  129  A    between atoms: _297  and  _298
REMARK  130  A    between atoms: _300  and  _302
REMARK  131  A    between atoms: _302  and  _303
REMARK  132  A    between atoms: _302  and  _305
REMARK  133  A    between atoms: _308  and  _309
REMARK  134  A    between atoms: _314  and  _316
REMARK  135  A    between atoms: _316  and  _317
REMARK  136  A    between atoms: _316  and  _319
REMARK  137  A    between atoms: _319  and  _320
REMARK  138  A    between atoms: _326  and  _328
REMARK  139  A    between atoms: _328  and  _329
REMARK  140  A    between atoms: _328  and  _331
REMARK  141  A    between atoms: _331  and  _332
REMARK  142  A    between atoms: _332  and  _333
REMARK  143  A    between atoms: _333  and  _334
REMARK  144  A    between atoms: _334  and  _335
REMARK  145  A    between atoms: _339  and  _341
REMARK  146  A    between atoms: _341  and  _342
REMARK  147  A    between atoms: _341  and  _344
REMARK  148  A    between atoms: _344  and  _345
REMARK  149  A    between atoms: _355  and  _357
REMARK  150  A    between atoms: _357  and  _358
REMARK  151  A    between atoms: _357  and  _360
REMARK  152  A    between atoms: _360  and  _361
REMARK  153  A    between atoms: _364  and  _366
REMARK  154  A    between atoms: _366  and  _367
REMARK  155  A    between atoms: _366  and  _369
REMARK  156  A    between atoms: _369  and  _370
REMARK  157  A    between atoms: _376  and  _378
REMARK  158  A    between atoms: _378  and  _379
REMARK  159  A    between atoms: _378  and  _381
REMARK  160  A    between atoms: _381  and  _382
REMARK  161  A    between atoms: _385  and  _387
REMARK  162  A    between atoms: _387  and  _388
REMARK  163  A    between atoms: _387  and  _390
REMARK  164  A    between atoms: _390  and  _391
REMARK  165  A    between atoms: _394  and  _396
REMARK  166  A    between atoms: _396  and  _397
REMARK  167  A    between atoms: _396  and  _399
REMARK  168  A    between atoms: _399  and  _400
REMARK  169  A    between atoms: _400  and  _401
REMARK  170  A    between atoms: _401  and  _402
REMARK  171  A    between atoms: _411  and  _413
REMARK  172  A    between atoms: _413  and  _414
REMARK  173  A    between atoms: _413  and  _416
REMARK  174  A    between atoms: _416  and  _417
REMARK  175  A    between atoms: _422  and  _424
REMARK  176  A    between atoms: _424  and  _425
REMARK  177  A    between atoms: _424  and  _427
REMARK  178  A    between atoms: _427  and  _428
REMARK  179  A    between atoms: _433  and  _435
REMARK  180  A    between atoms: _435  and  _436
REMARK  181  A    between atoms: _435  and  _438
REMARK  182  A    between atoms: _438  and  _439
REMARK  183  A    between atoms: _439  and  _440
REMARK  184  A    between atoms: _440  and  _441
REMARK  185  A    between atoms: _450  and  _452
REMARK  186  A    between atoms: _452  and  _453
REMARK  187  A    between atoms: _452  and  _455
REMARK  188  A    between atoms: _455  and  _456
REMARK  189  A    between atoms: _456  and  _457
REMARK  190  A    between atoms: _460  and  _462
REMARK  191  A    between atoms: _462  and  _463
REMARK  192  A    between atoms: _462  and  _465
REMARK  193  A    between atoms: _465  and  _466
REMARK  194  A    between atoms: _471  and  _472
REMARK  195  A    between atoms: _474  and  _476
REMARK  196  A    between atoms: _476  and  _477
REMARK  197  A    between atoms: _480  and  _482
REMARK  198  A    between atoms: _482  and  _483
REMARK  199  A    between atoms: _485  and  _487
REMARK  200  A    between atoms: _487  and  _488
REMARK  201  A    between atoms: _491  and  _493
REMARK  202  A    between atoms: _493  and  _494
REMARK  203  A    between atoms: _493  and  _496
REMARK  204  A    between atoms: _499  and  _501
REMARK  205  A    between atoms: _501  and  _502
REMARK  206  A    between atoms: _501  and  _504
REMARK  207  A    between atoms: _506  and  _508
REMARK  208  A    between atoms: _508  and  _509
REMARK  209  A    between atoms: _508  and  _511
REMARK  210  A    between atoms: _511  and  _512
REMARK  211  A    between atoms: _512  and  _513
REMARK                            x       y       z     vdW  Elec       q    Type
REMARK                         _______ _______ _______ _____ _____    ______ ____
ROOT
ATOM      1  CA  VAL A   2      13.942  -0.879  98.954  0.00  0.00    +0.148 C 
ENDROOT
BRANCH   1   4
ATOM      2  C   ALA A   1      16.338  -1.149  99.172  0.00  0.00    +0.238 C 
ATOM      3  O   ALA A   1      16.280  -0.869 100.366  0.00  0.00    -0.274 OA
ATOM      4  N   VAL A   2      15.261  -1.167  98.398  0.00  0.00    -0.297 N 
ATOM      5  H   VAL A   2      15.357  -1.388  97.386  0.00  0.00    +0.150 HD
BRANCH   2   6
ATOM      6  CA  ALA A   1      17.672  -1.473  98.502  0.00  0.00    +0.145 C 
ATOM      7  CB  ALA A   1      18.247  -0.211  97.869  0.00  0.00    +0.028 C 
BRANCH   6   8
ATOM      8  N   ALA A   1      17.509  -2.519  97.494  0.00  0.00    -0.238 NA
ATOM      9  H   ALA A   1      17.761  -2.323  96.504  0.00  0.00    +0.142 HD
ENDBRANCH   6   8
ENDBRANCH   2   6
ENDBRANCH   1   4
BRANCH   1  10
ATOM     10  C   VAL A   2      13.648  -1.935 100.022  0.00  0.00    +0.241 C 
ATOM     11  O   VAL A   2      13.265  -1.613 101.148  0.00  0.00    -0.273 OA
ATOM     12  N   CYS A   3      13.855  -3.190  99.646  0.00  0.00    -0.297 N 
ATOM     13  H   CYS A   3      14.186  -3.368  98.676  0.00  0.00    +0.150 HD
BRANCH  12  14
ATOM     14  CA  CYS A   3      13.641  -4.332 100.526  0.00  0.00    +0.149 C 
BRANCH  14  15
ATOM     15  C   CYS A   3      14.483  -4.237 101.793  0.00  0.00    +0.228 C 
ATOM     16  O   CYS A   3      13.957  -4.287 102.901  0.00  0.00    -0.286 OA
ENDBRANCH  14  15
BRANCH  14  17
ATOM     17  CB  CYS A   3      13.991  -5.623  99.782  0.00  0.00    +0.096 C 
ATOM     18  SG  CYS A   3      13.981  -7.116 100.816  0.00  0.00    -0.080 S 
ENDBRANCH  14  17
ENDBRANCH  12  14
ENDBRANCH   1  10
BRANCH   1  19
ATOM     19  CB  VAL A   2      12.863  -0.922  97.849  0.00  0.00    +0.027 C 
ATOM     20  CG2 VAL A   2      11.469  -0.811  98.451  0.00  0.00    +0.002 C 
ATOM     21  CG1 VAL A   2      13.107   0.213  96.866  0.00  0.00    +0.002 C 
ENDBRANCH   1  19
TORSDOF 8
REMARK  Name = ../refined-set-2016/1q1g/1q1g_pocket.pdb
REMARK  211 active torsions:
REMARK  status: ('A' for Active; 'I' for Inactive)
REMARK    1  A    between atoms: _1  and  _3
REMARK    2  A    between atoms: _3  and  _4
REMARK    3  A    between atoms: _3  and  _6
REMARK    4  A    between atoms: _9  and  _11
REMARK    5  A    between atoms: _11  and  _12
REMARK    6  A    between atoms: _14  and  _16
REMARK    7  A    between atoms: _16  and  _17
REMARK    8  A    between atoms: _16  and  _19
REMARK    9  A    between atoms: _19  and  _20
REMARK   10  A    between atoms: _23  and  _25
REMARK   11  A    between atoms: _25  and  _26
REMARK   12  A    between atoms: _25  and  _28
REMARK   13  A    between atoms: _28  and  _29
REMARK   14  A    between atoms: _34  and  _36
REMARK   15  A    between atoms: _36  and  _37
REMARK   16  A    between atoms: _39  and  _41
REMARK   17  A    between atoms: _41  and  _42
REMARK   18  A    between atoms: _41  and  _44
REMARK   19  A    between atoms: _47  and  _49
REMARK   20  A    between atoms: _49  and  _50
REMARK   21  A    between atoms: _52  and  _54
REMARK   22  A    between atoms: _54  and  _55
REMARK   23  A    between atoms: _54  and  _57
REMARK   24  A    between atoms: _57  and  _58
REMARK   25  A    between atoms: _60  and  _62
REMARK   26  A    between atoms: _62  and  _63
REMARK   27  A    between atoms: _62  and  _65
REMARK   28  A    between atoms: _65  and  _66
REMARK   29  A    between atoms: _66  and  _67
REMARK   30  A    between atoms: _67  and  _68
REMARK   31  A    between atoms: _77  and  _79
REMARK   32  A    between atoms: _79  and  _80
REMARK   33  A    between atoms: _82  and  _84
REMARK   34  A    between atoms: _84  and  _85
REMARK   35  A    between atoms: _84  and  _87
REMARK   36  A    between atoms: _87  and  _88
REMARK   37  A    between atoms: _90  and  _92
REMARK   38  A    between atoms: _92  and  _93
REMARK   39  A    between atoms: _92  and  _95
REMARK   40  A    between atoms: _97  and  _99
REMARK   41  A    between atoms: _99  and  _100
REMARK   42  A    between atoms: _102  and  _104
REMARK   43  A    between atoms: _104  and  _105
REMARK   44  A    between atoms: _104  and  _107
REMARK   45  A    between atoms: _107  and  _108
REMARK   46  A    between atoms: _110  and  _112
REMARK   47  A    between atoms: _112  and  _113
REMARK   48  A    between atoms: _112  and  _115
REMARK   49  A    between atoms: _115  and  _116
REMARK   50  A    between atoms: _119  and  _121
REMARK   51  A    between atoms: _121  and  _122
REMARK   52  A    between atoms: _121  and  _124
REMARK   53  A    between atoms: _124  and  _125
REMARK   54  A    between atoms: _127  and  _129
REMARK   55  A    between atoms: _129  and  _130
REMARK   56  A    between atoms: _129  and  _132
REMARK   57  A    between atoms: _135  and  _137
REMARK   58  A    between atoms: _137  and  _138
REMARK   59  A    between atoms: _137  and  _140
REMARK   60  A    between atoms: _140  and  _141
REMARK   61  A    between atoms: _143  and  _145
REMARK   62  A    between atoms: _145  and  _146
REMARK   63  A    between atoms: _145  and  _148
REMARK   64  A    between atoms: _148  and  _149
REMARK   65  A    between atoms: _151  and  _153
REMARK   66  A    between atoms: _153  and  _154
REMARK   67  A    between atoms: _153  and  _156
REMARK   68  A    between atoms: _156  and  _157
REMARK   69  A    between atoms: _160  and  _162
REMARK   70  A    between atoms: _162  and  _163
REMARK   71  A    between atoms: _162  and  _165
REMARK   72  A    between atoms: _165  and  _166
REMARK   73  A    between atoms: _166  and  _167
REMARK   74  A    between atoms: _169  and  _171
REMARK   75  A    between atoms: _171  and  _172
REMARK   76  A    between atoms: _171  and  _174
REMARK   77  A    between atoms: _174  and  _175
REMARK   78  A    between atoms: _180  and  _181
REMARK   79  A    between atoms: _183  and  _185
REMARK   80  A    between atoms: _185  and  _186
REMARK   81  A    between atoms: _185  and  _188
REMARK   82  A    between atoms: _188  and  _189
REMARK   83  A    between atoms: _194  and  _195
REMARK   84  A    between atoms: _197  and  _199
REMARK   85  A    between atoms: _199  and  _200
REMARK   86  A    between atoms: _199  and  _202
REMARK   87  A    between atoms: _202  and  _203
REMARK   88  A    between atoms: _206  and  _208
REMARK   89  A    between atoms: _208  and  _209
REMARK   90  A    between atoms: _208  and  _211
REMARK   91  A    between atoms: _214  and  _216
REMARK   92  A    between atoms: _216  and  _217
REMARK   93  A    between atoms: _216  and  _219
REMARK   94  A    between atoms: _222  and  _224
REMARK   95  A    between atoms: _224  and  _225
REMARK   96  A    between atoms: _224  and  _227
REMARK   97  A    between atoms: _227  and  _228
REMARK   98  A    between atoms: _228  and  _229
REMARK   99  A    between atoms: _232  and  _234
REMARK  100  A    between atoms: _234  and  _235
REMARK  101  A    between atoms: _234  and  _237
REMARK  102  A    between atoms: _237  and  _238
REMARK  103  A    between atoms: _238  and  _239
REMARK  104  A    between atoms: _241  and  _243
REMARK  105  A    between atoms: _243  and  _244
REMARK  106  A    between atoms: _243  and  _246
REMARK  107  A    between atoms: _246  and  _247
REMARK  108  A    between atoms: _247  and  _248
REMARK  109  A    between atoms: _251  and  _253
REMARK  110  A    between atoms: _253  and  _254
REMARK  111  A    between atoms: _253  and  _256
REMARK  112  A    between atoms: _256  and  _257
REMARK  113  A    between atoms: _260  and  _262
REMARK  114  A    between atoms: _262  and  _263
REMARK  115  A    between atoms: _262  and  _265
REMARK  116  A    between atoms: _265  and  _266
REMARK  117  A    between atoms: _269  and  _271
REMARK  118  A    between atoms: _271  and  _272
REMARK  119  A    between atoms: _271  and  _274
REMARK  120  A    between atoms: _274  and  _275
REMARK  121  A    between atoms: _278  and  _280
REMARK  122  A    between atoms: _280  and  _281
REMARK  123  A    between atoms: _280  and  _283
REMARK  124  A    between atoms: _286  and  _288
REMARK  125  A    between atoms: _288  and  _289
REMARK  126  A    between atoms: _288  and  _291
REMARK  127  A    between atoms: _291  and  _292
REMARK  128  A    between atoms: _295  and  _297
REMARK  129  A    between atoms: _297  and  _298
REMARK  130  A    between atoms: _300  and  _302
REMARK  131  A    between atoms: _302  and  _303
REMARK  132  A    between atoms: _302  and  _305
REMARK  133  A    between atoms: _308  and  _309
REMARK  134  A    between atoms: _314  and  _316
REMARK  135  A    between atoms: _316  and  _317
REMARK  136  A    between atoms: _316  and  _319
REMARK  137  A    between atoms: _319  and  _320
REMARK  138  A    between atoms: _326  and  _328
REMARK  139  A    between atoms: _328  and  _329
REMARK  140  A    between atoms: _328  and  _331
REMARK  141  A    between atoms: _331  and  _332
REMARK  142  A    between atoms: _332  and  _333
REMARK  143  A    between atoms: _333  and  _334
REMARK  144  A    between atoms: _334  and  _335
REMARK  145  A    between atoms: _339  and  _341
REMARK  146  A    between atoms: _341  and  _342
REMARK  147  A    between atoms: _341  and  _344
REMARK  148  A    between atoms: _344  and  _345
REMARK  149  A    between atoms: _355  and  _357
REMARK  150  A    between atoms: _357  and  _358
REMARK  151  A    between atoms: _357  and  _360
REMARK  152  A    between atoms: _360  and  _361
REMARK  153  A    between atoms: _364  and  _366
REMARK  154  A    between atoms: _366  and  _367
REMARK  155  A    between atoms: _366  and  _369
REMARK  156  A    between atoms: _369  and  _370
REMARK  157  A    between atoms: _376  and  _378
REMARK  158  A    between atoms: _378  and  _379
REMARK  159  A    between atoms: _378  and  _381
REMARK  160  A    between atoms: _381  and  _382
REMARK  161  A    between atoms: _385  and  _387
REMARK  162  A    between atoms: _387  and  _388
REMARK  163  A    between atoms: _387  and  _390
REMARK  164  A    between atoms: _390  and  _391
REMARK  165  A    between atoms: _394  and  _396
REMARK  166  A    between atoms: _396  and  _397
REMARK  167  A    between atoms: _396  and  _399
REMARK  168  A    between atoms: _399  and  _400
REMARK  169  A    between atoms: _400  and  _401
REMARK  170  A    between atoms: _401  and  _402
REMARK  171  A    between atoms: _411  and  _413
REMARK  172  A    between atoms: _413  and  _414
REMARK  173  A    between atoms: _413  and  _416
REMARK  174  A    between atoms: _416  and  _417
REMARK  175  A    between atoms: _422  and  _424
REMARK  176  A    between atoms: _424  and  _425
REMARK  177  A    between atoms: _424  and  _427
REMARK  178  A    between atoms: _427  and  _428
REMARK  179  A    between atoms: _433  and  _435
REMARK  180  A    between atoms: _435  and  _436
REMARK  181  A    between atoms: _435  and  _438
REMARK  182  A    between atoms: _438  and  _439
REMARK  183  A    between atoms: _439  and  _440
REMARK  184  A    between atoms: _440  and  _441
REMARK  185  A    between atoms: _450  and  _452
REMARK  186  A    between atoms: _452  and  _453
REMARK  187  A    between atoms: _452  and  _455
REMARK  188  A    between atoms: _455  and  _456
REMARK  189  A    between atoms: _456  and  _457
REMARK  190  A    between atoms: _460  and  _462
REMARK  191  A    between atoms: _462  and  _463
REMARK  192  A    between atoms: _462  and  _465
REMARK  193  A    between atoms: _465  and  _466
REMARK  194  A    between atoms: _471  and  _472
REMARK  195  A    between atoms: _474  and  _476
REMARK  196  A    between atoms: _476  and  _477
REMARK  197  A    between atoms: _480  and  _482
REMARK  198  A    between atoms: _482  and  _483
REMARK  199  A    between atoms: _485  and  _487
REMARK  200  A    between atoms: _487  and  _488
REMARK  201  A    between atoms: _491  and  _493
REMARK  202  A    between atoms: _493  and  _494
REMARK  203  A    between atoms: _493  and  _496
REMARK  204  A    between atoms: _499  and  _501
REMARK  205  A    between atoms: _501  and  _502
REMARK  206  A    between atoms: _501  and  _504
REMARK  207  A    between atoms: _506  and  _508
REMARK  208  A    between atoms: _508  and  _509
REMARK  209  A    between atoms: _508  and  _511
REMARK  210  A    between atoms: _511  and  _512
REMARK  211  A    between atoms: _512  and  _513
REMARK                            x       y       z     vdW  Elec       q    Type
REMARK                         _______ _______ _______ _____ _____    ______ ____
ROOT
ATOM      1  CA  GLU A   1      12.318  -1.658 105.012  0.00  0.00    +0.134 C 
ENDROOT
BRANCH   1   2
ATOM      2  N   GLU A   1      13.544  -1.376 104.270  0.00  0.00    -0.239 NA
ATOM      3  H   GLU A   1      13.610  -1.633 103.264  0.00  0.00    +0.142 HD
ENDBRANCH   1   2
BRANCH   1   4
ATOM      4  C   GLU A   1      12.575  -2.657 106.135  0.00  0.00    +0.224 C 
ATOM      5  O   GLU A   1      11.977  -2.561 107.201  0.00  0.00    -0.287 OA
ENDBRANCH   1   4
BRANCH   1   6
ATOM      6  CB  GLU A   1      11.229  -2.177 104.072  0.00  0.00    +0.037 C 
BRANCH   6   7
ATOM      7  CG  GLU A   1      10.384  -1.062 103.459  0.00  0.00    +0.116 C 
BRANCH   7   8
ATOM      8  CD  GLU A   1       9.330  -1.579 102.494  0.00  0.00    +0.365 C 
ATOM      9  OE2 GLU A   1       8.802  -2.687 102.726  0.00  0.00    -0.246 OA
ATOM     10  OE1 GLU A   1       9.019  -0.871 101.511  0.00  0.00    -0.246 OA
ENDBRANCH   7   8
ENDBRANCH   6   7
ENDBRANCH   1   6
TORSDOF 5
REMARK  Name = ../refined-set-2016/1q1g/1q1g_pocket.pdb
REMARK  211 active torsions:
REMARK  status: ('A' for Active; 'I' for Inactive)
REMARK    1  A    between atoms: _1  and  _3
REMARK    2  A    between atoms: _3  and  _4
REMARK    3  A    between atoms: _3  and  _6
REMARK    4  A    between atoms: _9  and  _11
REMARK    5  A    between atoms: _11  and  _12
REMARK    6  A    between atoms: _14  and  _16
REMARK    7  A    between atoms: _16  and  _17
REMARK    8  A    between atoms: _16  and  _19
REMARK    9  A    between atoms: _19  and  _20
REMARK   10  A    between atoms: _23  and  _25
REMARK   11  A    between atoms: _25  and  _26
REMARK   12  A    between atoms: _25  and  _28
REMARK   13  A    between atoms: _28  and  _29
REMARK   14  A    between atoms: _34  and  _36
REMARK   15  A    between atoms: _36  and  _37
REMARK   16  A    between atoms: _39  and  _41
REMARK   17  A    between atoms: _41  and  _42
REMARK   18  A    between atoms: _41  and  _44
REMARK   19  A    between atoms: _47  and  _49
REMARK   20  A    between atoms: _49  and  _50
REMARK   21  A    between atoms: _52  and  _54
REMARK   22  A    between atoms: _54  and  _55
REMARK   23  A    between atoms: _54  and  _57
REMARK   24  A    between atoms: _57  and  _58
REMARK   25  A    between atoms: _60  and  _62
REMARK   26  A    between atoms: _62  and  _63
REMARK   27  A    between atoms: _62  and  _65
REMARK   28  A    between atoms: _65  and  _66
REMARK   29  A    between atoms: _66  and  _67
REMARK   30  A    between atoms: _67  and  _68
REMARK   31  A    between atoms: _77  and  _79
REMARK   32  A    between atoms: _79  and  _80
REMARK   33  A    between atoms: _82  and  _84
REMARK   34  A    between atoms: _84  and  _85
REMARK   35  A    between atoms: _84  and  _87
REMARK   36  A    between atoms: _87  and  _88
REMARK   37  A    between atoms: _90  and  _92
REMARK   38  A    between atoms: _92  and  _93
REMARK   39  A    between atoms: _92  and  _95
REMARK   40  A    between atoms: _97  and  _99
REMARK   41  A    between atoms: _99  and  _100
REMARK   42  A    between atoms: _102  and  _104
REMARK   43  A    between atoms: _104  and  _105
REMARK   44  A    between atoms: _104  and  _107
REMARK   45  A    between atoms: _107  and  _108
REMARK   46  A    between atoms: _110  and  _112
REMARK   47  A    between atoms: _112  and  _113
REMARK   48  A    between atoms: _112  and  _115
REMARK   49  A    between atoms: _115  and  _116
REMARK   50  A    between atoms: _119  and  _121
REMARK   51  A    between atoms: _121  and  _122
REMARK   52  A    between atoms: _121  and  _124
REMARK   53  A    between atoms: _124  and  _125
REMARK   54  A    between atoms: _127  and  _129
REMARK   55  A    between atoms: _129  and  _130
REMARK   56  A    between atoms: _129  and  _132
REMARK   57  A    between atoms: _135  and  _137
REMARK   58  A    between atoms: _137  and  _138
REMARK   59  A    between atoms: _137  and  _140
REMARK   60  A    between atoms: _140  and  _141
REMARK   61  A    between atoms: _143  and  _145
REMARK   62  A    between atoms: _145  and  _146
REMARK   63  A    between atoms: _145  and  _148
REMARK   64  A    between atoms: _148  and  _149
REMARK   65  A    between atoms: _151  and  _153
REMARK   66  A    between atoms: _153  and  _154
REMARK   67  A    between atoms: _153  and  _156
REMARK   68  A    between atoms: _156  and  _157
REMARK   69  A    between atoms: _160  and  _162
REMARK   70  A    between atoms: _162  and  _163
REMARK   71  A    between atoms: _162  and  _165
REMARK   72  A    between atoms: _165  and  _166
REMARK   73  A    between atoms: _166  and  _167
REMARK   74  A    between atoms: _169  and  _171
REMARK   75  A    between atoms: _171  and  _172
REMARK   76  A    between atoms: _171  and  _174
REMARK   77  A    between atoms: _174  and  _175
REMARK   78  A    between atoms: _180  and  _181
REMARK   79  A    between atoms: _183  and  _185
REMARK   80  A    between atoms: _185  and  _186
REMARK   81  A    between atoms: _185  and  _188
REMARK   82  A    between atoms: _188  and  _189
REMARK   83  A    between atoms: _194  and  _195
REMARK   84  A    between atoms: _197  and  _199
REMARK   85  A    between atoms: _199  and  _200
REMARK   86  A    between atoms: _199  and  _202
REMARK   87  A    between atoms: _202  and  _203
REMARK   88  A    between atoms: _206  and  _208
REMARK   89  A    between atoms: _208  and  _209
REMARK   90  A    between atoms: _208  and  _211
REMARK   91  A    between atoms: _214  and  _216
REMARK   92  A    between atoms: _216  and  _217
REMARK   93  A    between atoms: _216  and  _219
REMARK   94  A    between atoms: _222  and  _224
REMARK   95  A    between atoms: _224  and  _225
REMARK   96  A    between atoms: _224  and  _227
REMARK   97  A    between atoms: _227  and  _228
REMARK   98  A    between atoms: _228  and  _229
REMARK   99  A    between atoms: _232  and  _234
REMARK  100  A    between atoms: _234  and  _235
REMARK  101  A    between atoms: _234  and  _237
REMARK  102  A    between atoms: _237  and  _238
REMARK  103  A    between atoms: _238  and  _239
REMARK  104  A    between atoms: _241  and  _243
REMARK  105  A    between atoms: _243  and  _244
REMARK  106  A    between atoms: _243  and  _246
REMARK  107  A    between atoms: _246  and  _247
REMARK  108  A    between atoms: _247  and  _248
REMARK  109  A    between atoms: _251  and  _253
REMARK  110  A    between atoms: _253  and  _254
REMARK  111  A    between atoms: _253  and  _256
REMARK  112  A    between atoms: _256  and  _257
REMARK  113  A    between atoms: _260  and  _262
REMARK  114  A    between atoms: _262  and  _263
REMARK  115  A    between atoms: _262  and  _265
REMARK  116  A    between atoms: _265  and  _266
REMARK  117  A    between atoms: _269  and  _271
REMARK  118  A    between atoms: _271  and  _272
REMARK  119  A    between atoms: _271  and  _274
REMARK  120  A    between atoms: _274  and  _275
REMARK  121  A    between atoms: _278  and  _280
REMARK  122  A    between atoms: _280  and  _281
REMARK  123  A    between atoms: _280  and  _283
REMARK  124  A    between atoms: _286  and  _288
REMARK  125  A    between atoms: _288  and  _289
REMARK  126  A    between atoms: _288  and  _291
REMARK  127  A    between atoms: _291  and  _292
REMARK  128  A    between atoms: _295  and  _297
REMARK  129  A    between atoms: _297  and  _298
REMARK  130  A    between atoms: _300  and  _302
REMARK  131  A    between atoms: _302  and  _303
REMARK  132  A    between atoms: _302  and  _305
REMARK  133  A    between atoms: _308  and  _309
REMARK  134  A    between atoms: _314  and  _316
REMARK  135  A    between atoms: _316  and  _317
REMARK  136  A    between atoms: _316  and  _319
REMARK  137  A    between atoms: _319  and  _320
REMARK  138  A    between atoms: _326  and  _328
REMARK  139  A    between atoms: _328  and  _329
REMARK  140  A    between atoms: _328  and  _331
REMARK  141  A    between atoms: _331  and  _332
REMARK  142  A    between atoms: _332  and  _333
REMARK  143  A    between atoms: _333  and  _334
REMARK  144  A    between atoms: _334  and  _335
REMARK  145  A    between atoms: _339  and  _341
REMARK  146  A    between atoms: _341  and  _342
REMARK  147  A    between atoms: _341  and  _344
REMARK  148  A    between atoms: _344  and  _345
REMARK  149  A    between atoms: _355  and  _357
REMARK  150  A    between atoms: _357  and  _358
REMARK  151  A    between atoms: _357  and  _360
REMARK  152  A    between atoms: _360  and  _361
REMARK  153  A    between atoms: _364  and  _366
REMARK  154  A    between atoms: _366  and  _367
REMARK  155  A    between atoms: _366  and  _369
REMARK  156  A    between atoms: _369  and  _370
REMARK  157  A    between atoms: _376  and  _378
REMARK  158  A    between atoms: _378  and  _379
REMARK  159  A    between atoms: _378  and  _381
REMARK  160  A    between atoms: _381  and  _382
REMARK  161  A    between atoms: _385  and  _387
REMARK  162  A    between atoms: _387  and  _388
REMARK  163  A    between atoms: _387  and  _390
REMARK  164  A    between atoms: _390  and  _391
REMARK  165  A    between atoms: _394  and  _396
REMARK  166  A    between atoms: _396  and  _397
REMARK  167  A    between atoms: _396  and  _399
REMARK  168  A    between atoms: _399  and  _400
REMARK  169  A    between atoms: _400  and  _401
REMARK  170  A    between atoms: _401  and  _402
REMARK  171  A    between atoms: _411  and  _413
REMARK  172  A    between atoms: _413  and  _414
REMARK  173  A    between atoms: _413  and  _416
REMARK  174  A    between atoms: _416  and  _417
REMARK  175  A    between atoms: _422  and  _424
REMARK  176  A    between atoms: _424  and  _425
REMARK  177  A    between atoms: _424  and  _427
REMARK  178  A    between atoms: _427  and  _428
REMARK  179  A    between atoms: _433  and  _435
REMARK  180  A    between atoms: _435  and  _436
REMARK  181  A    between atoms: _435  and  _438
REMARK  182  A    between atoms: _438  and  _439
REMARK  183  A    between atoms: _439  and  _440
REMARK  184  A    between atoms: _440  and  _441
REMARK  185  A    between atoms: _450  and  _452
REMARK  186  A    between atoms: _452  and  _453
REMARK  187  A    between atoms: _452  and  _455
REMARK  188  A    between atoms: _455  and  _456
REMARK  189  A    between atoms: _456  and  _457
REMARK  190  A    between atoms: _460  and  _462
REMARK  191  A    between atoms: _462  and  _463
REMARK  192  A    between atoms: _462  and  _465
REMARK  193  A    between atoms: _465  and  _466
REMARK  194  A    between atoms: _471  and  _472
REMARK  195  A    between atoms: _474  and  _476
REMARK  196  A    between atoms: _476  and  _477
REMARK  197  A    between atoms: _480  and  _482
REMARK  198  A    between atoms: _482  and  _483
REMARK  199  A    between atoms: _485  and  _487
REMARK  200  A    between atoms: _487  and  _488
REMARK  201  A    between atoms: _491  and  _493
REMARK  202  A    between atoms: _493  and  _494
REMARK  203  A    between atoms: _493  and  _496
REMARK  204  A    between atoms: _499  and  _501
REMARK  205  A    between atoms: _501  and  _502
REMARK  206  A    between atoms: _501  and  _504
REMARK  207  A    between atoms: _506  and  _508
REMARK  208  A    between atoms: _508  and  _509
REMARK  209  A    between atoms: _508  and  _511
REMARK  210  A    between atoms: _511  and  _512
REMARK  211  A    between atoms: _512  and  _513
REMARK                            x       y       z     vdW  Elec       q    Type
REMARK                         _______ _______ _______ _____ _____    ______ ____
ROOT
ATOM      1  O   HOH     1      16.570   2.509  90.183  0.00  0.00    +0.000 OA
ENDROOT
TORSDOF 0
REMARK  Name = ../refined-set-2016/1q1g/1q1g_pocket.pdb
REMARK  211 active torsions:
REMARK  status: ('A' for Active; 'I' for Inactive)
REMARK    1  A    between atoms: _1  and  _3
REMARK    2  A    between atoms: _3  and  _4
REMARK    3  A    between atoms: _3  and  _6
REMARK    4  A    between atoms: _9  and  _11
REMARK    5  A    between atoms: _11  and  _12
REMARK    6  A    between atoms: _14  and  _16
REMARK    7  A    between atoms: _16  and  _17
REMARK    8  A    between atoms: _16  and  _19
REMARK    9  A    between atoms: _19  and  _20
REMARK   10  A    between atoms: _23  and  _25
REMARK   11  A    between atoms: _25  and  _26
REMARK   12  A    between atoms: _25  and  _28
REMARK   13  A    between atoms: _28  and  _29
REMARK   14  A    between atoms: _34  and  _36
REMARK   15  A    between atoms: _36  and  _37
REMARK   16  A    between atoms: _39  and  _41
REMARK   17  A    between atoms: _41  and  _42
REMARK   18  A    between atoms: _41  and  _44
REMARK   19  A    between atoms: _47  and  _49
REMARK   20  A    between atoms: _49  and  _50
REMARK   21  A    between atoms: _52  and  _54
REMARK   22  A    between atoms: _54  and  _55
REMARK   23  A    between atoms: _54  and  _57
REMARK   24  A    between atoms: _57  and  _58
REMARK   25  A    between atoms: _60  and  _62
REMARK   26  A    between atoms: _62  and  _63
REMARK   27  A    between atoms: _62  and  _65
REMARK   28  A    between atoms: _65  and  _66
REMARK   29  A    between atoms: _66  and  _67
REMARK   30  A    between atoms: _67  and  _68
REMARK   31  A    between atoms: _77  and  _79
REMARK   32  A    between atoms: _79  and  _80
REMARK   33  A    between atoms: _82  and  _84
REMARK   34  A    between atoms: _84  and  _85
REMARK   35  A    between atoms: _84  and  _87
REMARK   36  A    between atoms: _87  and  _88
REMARK   37  A    between atoms: _90  and  _92
REMARK   38  A    between atoms: _92  and  _93
REMARK   39  A    between atoms: _92  and  _95
REMARK   40  A    between atoms: _97  and  _99
REMARK   41  A    between atoms: _99  and  _100
REMARK   42  A    between atoms: _102  and  _104
REMARK   43  A    between atoms: _104  and  _105
REMARK   44  A    between atoms: _104  and  _107
REMARK   45  A    between atoms: _107  and  _108
REMARK   46  A    between atoms: _110  and  _112
REMARK   47  A    between atoms: _112  and  _113
REMARK   48  A    between atoms: _112  and  _115
REMARK   49  A    between atoms: _115  and  _116
REMARK   50  A    between atoms: _119  and  _121
REMARK   51  A    between atoms: _121  and  _122
REMARK   52  A    between atoms: _121  and  _124
REMARK   53  A    between atoms: _124  and  _125
REMARK   54  A    between atoms: _127  and  _129
REMARK   55  A    between atoms: _129  and  _130
REMARK   56  A    between atoms: _129  and  _132
REMARK   57  A    between atoms: _135  and  _137
REMARK   58  A    between atoms: _137  and  _138
REMARK   59  A    between atoms: _137  and  _140
REMARK   60  A    between atoms: _140  and  _141
REMARK   61  A    between atoms: _143  and  _145
REMARK   62  A    between atoms: _145  and  _146
REMARK   63  A    between atoms: _145  and  _148
REMARK   64  A    between atoms: _148  and  _149
REMARK   65  A    between atoms: _151  and  _153
REMARK   66  A    between atoms: _153  and  _154
REMARK   67  A    between atoms: _153  and  _156
REMARK   68  A    between atoms: _156  and  _157
REMARK   69  A    between atoms: _160  and  _162
REMARK   70  A    between atoms: _162  and  _163
REMARK   71  A    between atoms: _162  and  _165
REMARK   72  A    between atoms: _165  and  _166
REMARK   73  A    between atoms: _166  and  _167
REMARK   74  A    between atoms: _169  and  _171
REMARK   75  A    between atoms: _171  and  _172
REMARK   76  A    between atoms: _171  and  _174
REMARK   77  A    between atoms: _174  and  _175
REMARK   78  A    between atoms: _180  and  _181
REMARK   79  A    between atoms: _183  and  _185
REMARK   80  A    between atoms: _185  and  _186
REMARK   81  A    between atoms: _185  and  _188
REMARK   82  A    between atoms: _188  and  _189
REMARK   83  A    between atoms: _194  and  _195
REMARK   84  A    between atoms: _197  and  _199
REMARK   85  A    between atoms: _199  and  _200
REMARK   86  A    between atoms: _199  and  _202
REMARK   87  A    between atoms: _202  and  _203
REMARK   88  A    between atoms: _206  and  _208
REMARK   89  A    between atoms: _208  and  _209
REMARK   90  A    between atoms: _208  and  _211
REMARK   91  A    between atoms: _214  and  _216
REMARK   92  A    between atoms: _216  and  _217
REMARK   93  A    between atoms: _216  and  _219
REMARK   94  A    between atoms: _222  and  _224
REMARK   95  A    between atoms: _224  and  _225
REMARK   96  A    between atoms: _224  and  _227
REMARK   97  A    between atoms: _227  and  _228
REMARK   98  A    between atoms: _228  and  _229
REMARK   99  A    between atoms: _232  and  _234
REMARK  100  A    between atoms: _234  and  _235
REMARK  101  A    between atoms: _234  and  _237
REMARK  102  A    between atoms: _237  and  _238
REMARK  103  A    between atoms: _238  and  _239
REMARK  104  A    between atoms: _241  and  _243
REMARK  105  A    between atoms: _243  and  _244
REMARK  106  A    between atoms: _243  and  _246
REMARK  107  A    between atoms: _246  and  _247
REMARK  108  A    between atoms: _247  and  _248
REMARK  109  A    between atoms: _251  and  _253
REMARK  110  A    between atoms: _253  and  _254
REMARK  111  A    between atoms: _253  and  _256
REMARK  112  A    between atoms: _256  and  _257
REMARK  113  A    between atoms: _260  and  _262
REMARK  114  A    between atoms: _262  and  _263
REMARK  115  A    between atoms: _262  and  _265
REMARK  116  A    between atoms: _265  and  _266
REMARK  117  A    between atoms: _269  and  _271
REMARK  118  A    between atoms: _271  and  _272
REMARK  119  A    between atoms: _271  and  _274
REMARK  120  A    between atoms: _274  and  _275
REMARK  121  A    between atoms: _278  and  _280
REMARK  122  A    between atoms: _280  and  _281
REMARK  123  A    between atoms: _280  and  _283
REMARK  124  A    between atoms: _286  and  _288
REMARK  125  A    between atoms: _288  and  _289
REMARK  126  A    between atoms: _288  and  _291
REMARK  127  A    between atoms: _291  and  _292
REMARK  128  A    between atoms: _295  and  _297
REMARK  129  A    between atoms: _297  and  _298
REMARK  130  A    between atoms: _300  and  _302
REMARK  131  A    between atoms: _302  and  _303
REMARK  132  A    between atoms: _302  and  _305
REMARK  133  A    between atoms: _308  and  _309
REMARK  134  A    between atoms: _314  and  _316
REMARK  135  A    between atoms: _316  and  _317
REMARK  136  A    between atoms: _316  and  _319
REMARK  137  A    between atoms: _319  and  _320
REMARK  138  A    between atoms: _326  and  _328
REMARK  139  A    between atoms: _328  and  _329
REMARK  140  A    between atoms: _328  and  _331
REMARK  141  A    between atoms: _331  and  _332
REMARK  142  A    between atoms: _332  and  _333
REMARK  143  A    between atoms: _333  and  _334
REMARK  144  A    between atoms: _334  and  _335
REMARK  145  A    between atoms: _339  and  _341
REMARK  146  A    between atoms: _341  and  _342
REMARK  147  A    between atoms: _341  and  _344
REMARK  148  A    between atoms: _344  and  _345
REMARK  149  A    between atoms: _355  and  _357
REMARK  150  A    between atoms: _357  and  _358
REMARK  151  A    between atoms: _357  and  _360
REMARK  152  A    between atoms: _360  and  _361
REMARK  153  A    between atoms: _364  and  _366
REMARK  154  A    between atoms: _366  and  _367
REMARK  155  A    between atoms: _366  and  _369
REMARK  156  A    between atoms: _369  and  _370
REMARK  157  A    between atoms: _376  and  _378
REMARK  158  A    between atoms: _378  and  _379
REMARK  159  A    between atoms: _378  and  _381
REMARK  160  A    between atoms: _381  and  _382
REMARK  161  A    between atoms: _385  and  _387
REMARK  162  A    between atoms: _387  and  _388
REMARK  163  A    between atoms: _387  and  _390
REMARK  164  A    between atoms: _390  and  _391
REMARK  165  A    between atoms: _394  and  _396
REMARK  166  A    between atoms: _396  and  _397
REMARK  167  A    between atoms: _396  and  _399
REMARK  168  A    between atoms: _399  and  _400
REMARK  169  A    between atoms: _400  and  _401
REMARK  170  A    between atoms: _401  and  _402
REMARK  171  A    between atoms: _411  and  _413
REMARK  172  A    between atoms: _413  and  _414
REMARK  173  A    between atoms: _413  and  _416
REMARK  174  A    between atoms: _416  and  _417
REMARK  175  A    between atoms: _422  and  _424
REMARK  176  A    between atoms: _424  and  _425
REMARK  177  A    between atoms: _424  and  _427
REMARK  178  A    between atoms: _427  and  _428
REMARK  179  A    between atoms: _433  and  _435
REMARK  180  A    between atoms: _435  and  _436
REMARK  181  A    between atoms: _435  and  _438
REMARK  182  A    between atoms: _438  and  _439
REMARK  183  A    between atoms: _439  and  _440
REMARK  184  A    between atoms: _440  and  _441
REMARK  185  A    between atoms: _450  and  _452
REMARK  186  A    between atoms: _452  and  _453
REMARK  187  A    between atoms: _452  and  _455
REMARK  188  A    between atoms: _455  and  _456
REMARK  189  A    between atoms: _456  and  _457
REMARK  190  A    between atoms: _460  and  _462
REMARK  191  A    between atoms: _462  and  _463
REMARK  192  A    between atoms: _462  and  _465
REMARK  193  A    between atoms: _465  and  _466
REMARK  194  A    between atoms: _471  and  _472
REMARK  195  A    between atoms: _474  and  _476
REMARK  196  A    between atoms: _476  and  _477
REMARK  197  A    between atoms: _480  and  _482
REMARK  198  A    between atoms: _482  and  _483
REMARK  199  A    between atoms: _485  and  _487
REMARK  200  A    between atoms: _487  and  _488
REMARK  201  A    between atoms: _491  and  _493
REMARK  202  A    between atoms: _493  and  _494
REMARK  203  A    between atoms: _493  and  _496
REMARK  204  A    between atoms: _499  and  _501
REMARK  205  A    between atoms: _501  and  _502
REMARK  206  A    between atoms: _501  and  _504
REMARK  207  A    between atoms: _506  and  _508
REMARK  208  A    between atoms: _508  and  _509
REMARK  209  A    between atoms: _508  and  _511
REMARK  210  A    between atoms: _511  and  _512
REMARK  211  A    between atoms: _512  and  _513
REMARK                            x       y       z     vdW  Elec       q    Type
REMARK                         _______ _______ _______ _____ _____    ______ ____
ROOT
ATOM      1  O   HOH     1      16.409   2.099  96.110  0.00  0.00    +0.000 OA
ENDROOT
TORSDOF 0
REMARK  Name = ../refined-set-2016/1q1g/1q1g_pocket.pdb
REMARK  211 active torsions:
REMARK  status: ('A' for Active; 'I' for Inactive)
REMARK    1  A    between atoms: _1  and  _3
REMARK    2  A    between atoms: _3  and  _4
REMARK    3  A    between atoms: _3  and  _6
REMARK    4  A    between atoms: _9  and  _11
REMARK    5  A    between atoms: _11  and  _12
REMARK    6  A    between atoms: _14  and  _16
REMARK    7  A    between atoms: _16  and  _17
REMARK    8  A    between atoms: _16  and  _19
REMARK    9  A    between atoms: _19  and  _20
REMARK   10  A    between atoms: _23  and  _25
REMARK   11  A    between atoms: _25  and  _26
REMARK   12  A    between atoms: _25  and  _28
REMARK   13  A    between atoms: _28  and  _29
REMARK   14  A    between atoms: _34  and  _36
REMARK   15  A    between atoms: _36  and  _37
REMARK   16  A    between atoms: _39  and  _41
REMARK   17  A    between atoms: _41  and  _42
REMARK   18  A    between atoms: _41  and  _44
REMARK   19  A    between atoms: _47  and  _49
REMARK   20  A    between atoms: _49  and  _50
REMARK   21  A    between atoms: _52  and  _54
REMARK   22  A    between atoms: _54  and  _55
REMARK   23  A    between atoms: _54  and  _57
REMARK   24  A    between atoms: _57  and  _58
REMARK   25  A    between atoms: _60  and  _62
REMARK   26  A    between atoms: _62  and  _63
REMARK   27  A    between atoms: _62  and  _65
REMARK   28  A    between atoms: _65  and  _66
REMARK   29  A    between atoms: _66  and  _67
REMARK   30  A    between atoms: _67  and  _68
REMARK   31  A    between atoms: _77  and  _79
REMARK   32  A    between atoms: _79  and  _80
REMARK   33  A    between atoms: _82  and  _84
REMARK   34  A    between atoms: _84  and  _85
REMARK   35  A    between atoms: _84  and  _87
REMARK   36  A    between atoms: _87  and  _88
REMARK   37  A    between atoms: _90  and  _92
REMARK   38  A    between atoms: _92  and  _93
REMARK   39  A    between atoms: _92  and  _95
REMARK   40  A    between atoms: _97  and  _99
REMARK   41  A    between atoms: _99  and  _100
REMARK   42  A    between atoms: _102  and  _104
REMARK   43  A    between atoms: _104  and  _105
REMARK   44  A    between atoms: _104  and  _107
REMARK   45  A    between atoms: _107  and  _108
REMARK   46  A    between atoms: _110  and  _112
REMARK   47  A    between atoms: _112  and  _113
REMARK   48  A    between atoms: _112  and  _115
REMARK   49  A    between atoms: _115  and  _116
REMARK   50  A    between atoms: _119  and  _121
REMARK   51  A    between atoms: _121  and  _122
REMARK   52  A    between atoms: _121  and  _124
REMARK   53  A    between atoms: _124  and  _125
REMARK   54  A    between atoms: _127  and  _129
REMARK   55  A    between atoms: _129  and  _130
REMARK   56  A    between atoms: _129  and  _132
REMARK   57  A    between atoms: _135  and  _137
REMARK   58  A    between atoms: _137  and  _138
REMARK   59  A    between atoms: _137  and  _140
REMARK   60  A    between atoms: _140  and  _141
REMARK   61  A    between atoms: _143  and  _145
REMARK   62  A    between atoms: _145  and  _146
REMARK   63  A    between atoms: _145  and  _148
REMARK   64  A    between atoms: _148  and  _149
REMARK   65  A    between atoms: _151  and  _153
REMARK   66  A    between atoms: _153  and  _154
REMARK   67  A    between atoms: _153  and  _156
REMARK   68  A    between atoms: _156  and  _157
REMARK   69  A    between atoms: _160  and  _162
REMARK   70  A    between atoms: _162  and  _163
REMARK   71  A    between atoms: _162  and  _165
REMARK   72  A    between atoms: _165  and  _166
REMARK   73  A    between atoms: _166  and  _167
REMARK   74  A    between atoms: _169  and  _171
REMARK   75  A    between atoms: _171  and  _172
REMARK   76  A    between atoms: _171  and  _174
REMARK   77  A    between atoms: _174  and  _175
REMARK   78  A    between atoms: _180  and  _181
REMARK   79  A    between atoms: _183  and  _185
REMARK   80  A    between atoms: _185  and  _186
REMARK   81  A    between atoms: _185  and  _188
REMARK   82  A    between atoms: _188  and  _189
REMARK   83  A    between atoms: _194  and  _195
REMARK   84  A    between atoms: _197  and  _199
REMARK   85  A    between atoms: _199  and  _200
REMARK   86  A    between atoms: _199  and  _202
REMARK   87  A    between atoms: _202  and  _203
REMARK   88  A    between atoms: _206  and  _208
REMARK   89  A    between atoms: _208  and  _209
REMARK   90  A    between atoms: _208  and  _211
REMARK   91  A    between atoms: _214  and  _216
REMARK   92  A    between atoms: _216  and  _217
REMARK   93  A    between atoms: _216  and  _219
REMARK   94  A    between atoms: _222  and  _224
REMARK   95  A    between atoms: _224  and  _225
REMARK   96  A    between atoms: _224  and  _227
REMARK   97  A    between atoms: _227  and  _228
REMARK   98  A    between atoms: _228  and  _229
REMARK   99  A    between atoms: _232  and  _234
REMARK  100  A    between atoms: _234  and  _235
REMARK  101  A    between atoms: _234  and  _237
REMARK  102  A    between atoms: _237  and  _238
REMARK  103  A    between atoms: _238  and  _239
REMARK  104  A    between atoms: _241  and  _243
REMARK  105  A    between atoms: _243  and  _244
REMARK  106  A    between atoms: _243  and  _246
REMARK  107  A    between atoms: _246  and  _247
REMARK  108  A    between atoms: _247  and  _248
REMARK  109  A    between atoms: _251  and  _253
REMARK  110  A    between atoms: _253  and  _254
REMARK  111  A    between atoms: _253  and  _256
REMARK  112  A    between atoms: _256  and  _257
REMARK  113  A    between atoms: _260  and  _262
REMARK  114  A    between atoms: _262  and  _263
REMARK  115  A    between atoms: _262  and  _265
REMARK  116  A    between atoms: _265  and  _266
REMARK  117  A    between atoms: _269  and  _271
REMARK  118  A    between atoms: _271  and  _272
REMARK  119  A    between atoms: _271  and  _274
REMARK  120  A    between atoms: _274  and  _275
REMARK  121  A    between atoms: _278  and  _280
REMARK  122  A    between atoms: _280  and  _281
REMARK  123  A    between atoms: _280  and  _283
REMARK  124  A    between atoms: _286  and  _288
REMARK  125  A    between atoms: _288  and  _289
REMARK  126  A    between atoms: _288  and  _291
REMARK  127  A    between atoms: _291  and  _292
REMARK  128  A    between atoms: _295  and  _297
REMARK  129  A    between atoms: _297  and  _298
REMARK  130  A    between atoms: _300  and  _302
REMARK  131  A    between atoms: _302  and  _303
REMARK  132  A    between atoms: _302  and  _305
REMARK  133  A    between atoms: _308  and  _309
REMARK  134  A    between atoms: _314  and  _316
REMARK  135  A    between atoms: _316  and  _317
REMARK  136  A    between atoms: _316  and  _319
REMARK  137  A    between atoms: _319  and  _320
REMARK  138  A    between atoms: _326  and  _328
REMARK  139  A    between atoms: _328  and  _329
REMARK  140  A    between atoms: _328  and  _331
REMARK  141  A    between atoms: _331  and  _332
REMARK  142  A    between atoms: _332  and  _333
REMARK  143  A    between atoms: _333  and  _334
REMARK  144  A    between atoms: _334  and  _335
REMARK  145  A    between atoms: _339  and  _341
REMARK  146  A    between atoms: _341  and  _342
REMARK  147  A    between atoms: _341  and  _344
REMARK  148  A    between atoms: _344  and  _345
REMARK  149  A    between atoms: _355  and  _357
REMARK  150  A    between atoms: _357  and  _358
REMARK  151  A    between atoms: _357  and  _360
REMARK  152  A    between atoms: _360  and  _361
REMARK  153  A    between atoms: _364  and  _366
REMARK  154  A    between atoms: _366  and  _367
REMARK  155  A    between atoms: _366  and  _369
REMARK  156  A    between atoms: _369  and  _370
REMARK  157  A    between atoms: _376  and  _378
REMARK  158  A    between atoms: _378  and  _379
REMARK  159  A    between atoms: _378  and  _381
REMARK  160  A    between atoms: _381  and  _382
REMARK  161  A    between atoms: _385  and  _387
REMARK  162  A    between atoms: _387  and  _388
REMARK  163  A    between atoms: _387  and  _390
REMARK  164  A    between atoms: _390  and  _391
REMARK  165  A    between atoms: _394  and  _396
REMARK  166  A    between atoms: _396  and  _397
REMARK  167  A    between atoms: _396  and  _399
REMARK  168  A    between atoms: _399  and  _400
REMARK  169  A    between atoms: _400  and  _401
REMARK  170  A    between atoms: _401  and  _402
REMARK  171  A    between atoms: _411  and  _413
REMARK  172  A    between atoms: _413  and  _414
REMARK  173  A    between atoms: _413  and  _416
REMARK  174  A    between atoms: _416  and  _417
REMARK  175  A    between atoms: _422  and  _424
REMARK  176  A    between atoms: _424  and  _425
REMARK  177  A    between atoms: _424  and  _427
REMARK  178  A    between atoms: _427  and  _428
REMARK  179  A    between atoms: _433  and  _435
REMARK  180  A    between atoms: _435  and  _436
REMARK  181  A    between atoms: _435  and  _438
REMARK  182  A    between atoms: _438  and  _439
REMARK  183  A    between atoms: _439  and  _440
REMARK  184  A    between atoms: _440  and  _441
REMARK  185  A    between atoms: _450  and  _452
REMARK  186  A    between atoms: _452  and  _453
REMARK  187  A    between atoms: _452  and  _455
REMARK  188  A    between atoms: _455  and  _456
REMARK  189  A    between atoms: _456  and  _457
REMARK  190  A    between atoms: _460  and  _462
REMARK  191  A    between atoms: _462  and  _463
REMARK  192  A    between atoms: _462  and  _465
REMARK  193  A    between atoms: _465  and  _466
REMARK  194  A    between atoms: _471  and  _472
REMARK  195  A    between atoms: _474  and  _476
REMARK  196  A    between atoms: _476  and  _477
REMARK  197  A    between atoms: _480  and  _482
REMARK  198  A    between atoms: _482  and  _483
REMARK  199  A    between atoms: _485  and  _487
REMARK  200  A    between atoms: _487  and  _488
REMARK  201  A    between atoms: _491  and  _493
REMARK  202  A    between atoms: _493  and  _494
REMARK  203  A    between atoms: _493  and  _496
REMARK  204  A    between atoms: _499  and  _501
REMARK  205  A    between atoms: _501  and  _502
REMARK  206  A    between atoms: _501  and  _504
REMARK  207  A    between atoms: _506  and  _508
REMARK  208  A    between atoms: _508  and  _509
REMARK  209  A    between atoms: _508  and  _511
REMARK  210  A    between atoms: _511  and  _512
REMARK  211  A    between atoms: _512  and  _513
REMARK                            x       y       z     vdW  Elec       q    Type
REMARK                         _______ _______ _______ _____ _____    ______ ____
ROOT
ATOM      1  O   HOH     1       5.580   9.222  96.135  0.00  0.00    +0.000 OA
ENDROOT
TORSDOF 0
REMARK  Name = ../refined-set-2016/1q1g/1q1g_pocket.pdb
REMARK  211 active torsions:
REMARK  status: ('A' for Active; 'I' for Inactive)
REMARK    1  A    between atoms: _1  and  _3
REMARK    2  A    between atoms: _3  and  _4
REMARK    3  A    between atoms: _3  and  _6
REMARK    4  A    between atoms: _9  and  _11
REMARK    5  A    between atoms: _11  and  _12
REMARK    6  A    between atoms: _14  and  _16
REMARK    7  A    between atoms: _16  and  _17
REMARK    8  A    between atoms: _16  and  _19
REMARK    9  A    between atoms: _19  and  _20
REMARK   10  A    between atoms: _23  and  _25
REMARK   11  A    between atoms: _25  and  _26
REMARK   12  A    between atoms: _25  and  _28
REMARK   13  A    between atoms: _28  and  _29
REMARK   14  A    between atoms: _34  and  _36
REMARK   15  A    between atoms: _36  and  _37
REMARK   16  A    between atoms: _39  and  _41
REMARK   17  A    between atoms: _41  and  _42
REMARK   18  A    between atoms: _41  and  _44
REMARK   19  A    between atoms: _47  and  _49
REMARK   20  A    between atoms: _49  and  _50
REMARK   21  A    between atoms: _52  and  _54
REMARK   22  A    between atoms: _54  and  _55
REMARK   23  A    between atoms: _54  and  _57
REMARK   24  A    between atoms: _57  and  _58
REMARK   25  A    between atoms: _60  and  _62
REMARK   26  A    between atoms: _62  and  _63
REMARK   27  A    between atoms: _62  and  _65
REMARK   28  A    between atoms: _65  and  _66
REMARK   29  A    between atoms: _66  and  _67
REMARK   30  A    between atoms: _67  and  _68
REMARK   31  A    between atoms: _77  and  _79
REMARK   32  A    between atoms: _79  and  _80
REMARK   33  A    between atoms: _82  and  _84
REMARK   34  A    between atoms: _84  and  _85
REMARK   35  A    between atoms: _84  and  _87
REMARK   36  A    between atoms: _87  and  _88
REMARK   37  A    between atoms: _90  and  _92
REMARK   38  A    between atoms: _92  and  _93
REMARK   39  A    between atoms: _92  and  _95
REMARK   40  A    between atoms: _97  and  _99
REMARK   41  A    between atoms: _99  and  _100
REMARK   42  A    between atoms: _102  and  _104
REMARK   43  A    between atoms: _104  and  _105
REMARK   44  A    between atoms: _104  and  _107
REMARK   45  A    between atoms: _107  and  _108
REMARK   46  A    between atoms: _110  and  _112
REMARK   47  A    between atoms: _112  and  _113
REMARK   48  A    between atoms: _112  and  _115
REMARK   49  A    between atoms: _115  and  _116
REMARK   50  A    between atoms: _119  and  _121
REMARK   51  A    between atoms: _121  and  _122
REMARK   52  A    between atoms: _121  and  _124
REMARK   53  A    between atoms: _124  and  _125
REMARK   54  A    between atoms: _127  and  _129
REMARK   55  A    between atoms: _129  and  _130
REMARK   56  A    between atoms: _129  and  _132
REMARK   57  A    between atoms: _135  and  _137
REMARK   58  A    between atoms: _137  and  _138
REMARK   59  A    between atoms: _137  and  _140
REMARK   60  A    between atoms: _140  and  _141
REMARK   61  A    between atoms: _143  and  _145
REMARK   62  A    between atoms: _145  and  _146
REMARK   63  A    between atoms: _145  and  _148
REMARK   64  A    between atoms: _148  and  _149
REMARK   65  A    between atoms: _151  and  _153
REMARK   66  A    between atoms: _153  and  _154
REMARK   67  A    between atoms: _153  and  _156
REMARK   68  A    between atoms: _156  and  _157
REMARK   69  A    between atoms: _160  and  _162
REMARK   70  A    between atoms: _162  and  _163
REMARK   71  A    between atoms: _162  and  _165
REMARK   72  A    between atoms: _165  and  _166
REMARK   73  A    between atoms: _166  and  _167
REMARK   74  A    between atoms: _169  and  _171
REMARK   75  A    between atoms: _171  and  _172
REMARK   76  A    between atoms: _171  and  _174
REMARK   77  A    between atoms: _174  and  _175
REMARK   78  A    between atoms: _180  and  _181
REMARK   79  A    between atoms: _183  and  _185
REMARK   80  A    between atoms: _185  and  _186
REMARK   81  A    between atoms: _185  and  _188
REMARK   82  A    between atoms: _188  and  _189
REMARK   83  A    between atoms: _194  and  _195
REMARK   84  A    between atoms: _197  and  _199
REMARK   85  A    between atoms: _199  and  _200
REMARK   86  A    between atoms: _199  and  _202
REMARK   87  A    between atoms: _202  and  _203
REMARK   88  A    between atoms: _206  and  _208
REMARK   89  A    between atoms: _208  and  _209
REMARK   90  A    between atoms: _208  and  _211
REMARK   91  A    between atoms: _214  and  _216
REMARK   92  A    between atoms: _216  and  _217
REMARK   93  A    between atoms: _216  and  _219
REMARK   94  A    between atoms: _222  and  _224
REMARK   95  A    between atoms: _224  and  _225
REMARK   96  A    between atoms: _224  and  _227
REMARK   97  A    between atoms: _227  and  _228
REMARK   98  A    between atoms: _228  and  _229
REMARK   99  A    between atoms: _232  and  _234
REMARK  100  A    between atoms: _234  and  _235
REMARK  101  A    between atoms: _234  and  _237
REMARK  102  A    between atoms: _237  and  _238
REMARK  103  A    between atoms: _238  and  _239
REMARK  104  A    between atoms: _241  and  _243
REMARK  105  A    between atoms: _243  and  _244
REMARK  106  A    between atoms: _243  and  _246
REMARK  107  A    between atoms: _246  and  _247
REMARK  108  A    between atoms: _247  and  _248
REMARK  109  A    between atoms: _251  and  _253
REMARK  110  A    between atoms: _253  and  _254
REMARK  111  A    between atoms: _253  and  _256
REMARK  112  A    between atoms: _256  and  _257
REMARK  113  A    between atoms: _260  and  _262
REMARK  114  A    between atoms: _262  and  _263
REMARK  115  A    between atoms: _262  and  _265
REMARK  116  A    between atoms: _265  and  _266
REMARK  117  A    between atoms: _269  and  _271
REMARK  118  A    between atoms: _271  and  _272
REMARK  119  A    between atoms: _271  and  _274
REMARK  120  A    between atoms: _274  and  _275
REMARK  121  A    between atoms: _278  and  _280
REMARK  122  A    between atoms: _280  and  _281
REMARK  123  A    between atoms: _280  and  _283
REMARK  124  A    between atoms: _286  and  _288
REMARK  125  A    between atoms: _288  and  _289
REMARK  126  A    between atoms: _288  and  _291
REMARK  127  A    between atoms: _291  and  _292
REMARK  128  A    between atoms: _295  and  _297
REMARK  129  A    between atoms: _297  and  _298
REMARK  130  A    between atoms: _300  and  _302
REMARK  131  A    between atoms: _302  and  _303
REMARK  132  A    between atoms: _302  and  _305
REMARK  133  A    between atoms: _308  and  _309
REMARK  134  A    between atoms: _314  and  _316
REMARK  135  A    between atoms: _316  and  _317
REMARK  136  A    between atoms: _316  and  _319
REMARK  137  A    between atoms: _319  and  _320
REMARK  138  A    between atoms: _326  and  _328
REMARK  139  A    between atoms: _328  and  _329
REMARK  140  A    between atoms: _328  and  _331
REMARK  141  A    between atoms: _331  and  _332
REMARK  142  A    between atoms: _332  and  _333
REMARK  143  A    between atoms: _333  and  _334
REMARK  144  A    between atoms: _334  and  _335
REMARK  145  A    between atoms: _339  and  _341
REMARK  146  A    between atoms: _341  and  _342
REMARK  147  A    between atoms: _341  and  _344
REMARK  148  A    between atoms: _344  and  _345
REMARK  149  A    between atoms: _355  and  _357
REMARK  150  A    between atoms: _357  and  _358
REMARK  151  A    between atoms: _357  and  _360
REMARK  152  A    between atoms: _360  and  _361
REMARK  153  A    between atoms: _364  and  _366
REMARK  154  A    between atoms: _366  and  _367
REMARK  155  A    between atoms: _366  and  _369
REMARK  156  A    between atoms: _369  and  _370
REMARK  157  A    between atoms: _376  and  _378
REMARK  158  A    between atoms: _378  and  _379
REMARK  159  A    between atoms: _378  and  _381
REMARK  160  A    between atoms: _381  and  _382
REMARK  161  A    between atoms: _385  and  _387
REMARK  162  A    between atoms: _387  and  _388
REMARK  163  A    between atoms: _387  and  _390
REMARK  164  A    between atoms: _390  and  _391
REMARK  165  A    between atoms: _394  and  _396
REMARK  166  A    between atoms: _396  and  _397
REMARK  167  A    between atoms: _396  and  _399
REMARK  168  A    between atoms: _399  and  _400
REMARK  169  A    between atoms: _400  and  _401
REMARK  170  A    between atoms: _401  and  _402
REMARK  171  A    between atoms: _411  and  _413
REMARK  172  A    between atoms: _413  and  _414
REMARK  173  A    between atoms: _413  and  _416
REMARK  174  A    between atoms: _416  and  _417
REMARK  175  A    between atoms: _422  and  _424
REMARK  176  A    between atoms: _424  and  _425
REMARK  177  A    between atoms: _424  and  _427
REMARK  178  A    between atoms: _427  and  _428
REMARK  179  A    between atoms: _433  and  _435
REMARK  180  A    between atoms: _435  and  _436
REMARK  181  A    between atoms: _435  and  _438
REMARK  182  A    between atoms: _438  and  _439
REMARK  183  A    between atoms: _439  and  _440
REMARK  184  A    between atoms: _440  and  _441
REMARK  185  A    between atoms: _450  and  _452
REMARK  186  A    between atoms: _452  and  _453
REMARK  187  A    between atoms: _452  and  _455
REMARK  188  A    between atoms: _455  and  _456
REMARK  189  A    between atoms: _456  and  _457
REMARK  190  A    between atoms: _460  and  _462
REMARK  191  A    between atoms: _462  and  _463
REMARK  192  A    between atoms: _462  and  _465
REMARK  193  A    between atoms: _465  and  _466
REMARK  194  A    between atoms: _471  and  _472
REMARK  195  A    between atoms: _474  and  _476
REMARK  196  A    between atoms: _476  and  _477
REMARK  197  A    between atoms: _480  and  _482
REMARK  198  A    between atoms: _482  and  _483
REMARK  199  A    between atoms: _485  and  _487
REMARK  200  A    between atoms: _487  and  _488
REMARK  201  A    between atoms: _491  and  _493
REMARK  202  A    between atoms: _493  and  _494
REMARK  203  A    between atoms: _493  and  _496
REMARK  204  A    between atoms: _499  and  _501
REMARK  205  A    between atoms: _501  and  _502
REMARK  206  A    between atoms: _501  and  _504
REMARK  207  A    between atoms: _506  and  _508
REMARK  208  A    between atoms: _508  and  _509
REMARK  209  A    between atoms: _508  and  _511
REMARK  210  A    between atoms: _511  and  _512
REMARK  211  A    between atoms: _512  and  _513
REMARK                            x       y       z     vdW  Elec       q    Type
REMARK                         _______ _______ _______ _____ _____    ______ ____
ROOT
ATOM      1  O   HOH     1      16.698   4.797  85.651  0.00  0.00    +0.000 OA
ENDROOT
TORSDOF 0
REMARK  Name = ../refined-set-2016/1q1g/1q1g_pocket.pdb
REMARK  211 active torsions:
REMARK  status: ('A' for Active; 'I' for Inactive)
REMARK    1  A    between atoms: _1  and  _3
REMARK    2  A    between atoms: _3  and  _4
REMARK    3  A    between atoms: _3  and  _6
REMARK    4  A    between atoms: _9  and  _11
REMARK    5  A    between atoms: _11  and  _12
REMARK    6  A    between atoms: _14  and  _16
REMARK    7  A    between atoms: _16  and  _17
REMARK    8  A    between atoms: _16  and  _19
REMARK    9  A    between atoms: _19  and  _20
REMARK   10  A    between atoms: _23  and  _25
REMARK   11  A    between atoms: _25  and  _26
REMARK   12  A    between atoms: _25  and  _28
REMARK   13  A    between atoms: _28  and  _29
REMARK   14  A    between atoms: _34  and  _36
REMARK   15  A    between atoms: _36  and  _37
REMARK   16  A    between atoms: _39  and  _41
REMARK   17  A    between atoms: _41  and  _42
REMARK   18  A    between atoms: _41  and  _44
REMARK   19  A    between atoms: _47  and  _49
REMARK   20  A    between atoms: _49  and  _50
REMARK   21  A    between atoms: _52  and  _54
REMARK   22  A    between atoms: _54  and  _55
REMARK   23  A    between atoms: _54  and  _57
REMARK   24  A    between atoms: _57  and  _58
REMARK   25  A    between atoms: _60  and  _62
REMARK   26  A    between atoms: _62  and  _63
REMARK   27  A    between atoms: _62  and  _65
REMARK   28  A    between atoms: _65  and  _66
REMARK   29  A    between atoms: _66  and  _67
REMARK   30  A    between atoms: _67  and  _68
REMARK   31  A    between atoms: _77  and  _79
REMARK   32  A    between atoms: _79  and  _80
REMARK   33  A    between atoms: _82  and  _84
REMARK   34  A    between atoms: _84  and  _85
REMARK   35  A    between atoms: _84  and  _87
REMARK   36  A    between atoms: _87  and  _88
REMARK   37  A    between atoms: _90  and  _92
REMARK   38  A    between atoms: _92  and  _93
REMARK   39  A    between atoms: _92  and  _95
REMARK   40  A    between atoms: _97  and  _99
REMARK   41  A    between atoms: _99  and  _100
REMARK   42  A    between atoms: _102  and  _104
REMARK   43  A    between atoms: _104  and  _105
REMARK   44  A    between atoms: _104  and  _107
REMARK   45  A    between atoms: _107  and  _108
REMARK   46  A    between atoms: _110  and  _112
REMARK   47  A    between atoms: _112  and  _113
REMARK   48  A    between atoms: _112  and  _115
REMARK   49  A    between atoms: _115  and  _116
REMARK   50  A    between atoms: _119  and  _121
REMARK   51  A    between atoms: _121  and  _122
REMARK   52  A    between atoms: _121  and  _124
REMARK   53  A    between atoms: _124  and  _125
REMARK   54  A    between atoms: _127  and  _129
REMARK   55  A    between atoms: _129  and  _130
REMARK   56  A    between atoms: _129  and  _132
REMARK   57  A    between atoms: _135  and  _137
REMARK   58  A    between atoms: _137  and  _138
REMARK   59  A    between atoms: _137  and  _140
REMARK   60  A    between atoms: _140  and  _141
REMARK   61  A    between atoms: _143  and  _145
REMARK   62  A    between atoms: _145  and  _146
REMARK   63  A    between atoms: _145  and  _148
REMARK   64  A    between atoms: _148  and  _149
REMARK   65  A    between atoms: _151  and  _153
REMARK   66  A    between atoms: _153  and  _154
REMARK   67  A    between atoms: _153  and  _156
REMARK   68  A    between atoms: _156  and  _157
REMARK   69  A    between atoms: _160  and  _162
REMARK   70  A    between atoms: _162  and  _163
REMARK   71  A    between atoms: _162  and  _165
REMARK   72  A    between atoms: _165  and  _166
REMARK   73  A    between atoms: _166  and  _167
REMARK   74  A    between atoms: _169  and  _171
REMARK   75  A    between atoms: _171  and  _172
REMARK   76  A    between atoms: _171  and  _174
REMARK   77  A    between atoms: _174  and  _175
REMARK   78  A    between atoms: _180  and  _181
REMARK   79  A    between atoms: _183  and  _185
REMARK   80  A    between atoms: _185  and  _186
REMARK   81  A    between atoms: _185  and  _188
REMARK   82  A    between atoms: _188  and  _189
REMARK   83  A    between atoms: _194  and  _195
REMARK   84  A    between atoms: _197  and  _199
REMARK   85  A    between atoms: _199  and  _200
REMARK   86  A    between atoms: _199  and  _202
REMARK   87  A    between atoms: _202  and  _203
REMARK   88  A    between atoms: _206  and  _208
REMARK   89  A    between atoms: _208  and  _209
REMARK   90  A    between atoms: _208  and  _211
REMARK   91  A    between atoms: _214  and  _216
REMARK   92  A    between atoms: _216  and  _217
REMARK   93  A    between atoms: _216  and  _219
REMARK   94  A    between atoms: _222  and  _224
REMARK   95  A    between atoms: _224  and  _225
REMARK   96  A    between atoms: _224  and  _227
REMARK   97  A    between atoms: _227  and  _228
REMARK   98  A    between atoms: _228  and  _229
REMARK   99  A    between atoms: _232  and  _234
REMARK  100  A    between atoms: _234  and  _235
REMARK  101  A    between atoms: _234  and  _237
REMARK  102  A    between atoms: _237  and  _238
REMARK  103  A    between atoms: _238  and  _239
REMARK  104  A    between atoms: _241  and  _243
REMARK  105  A    between atoms: _243  and  _244
REMARK  106  A    between atoms: _243  and  _246
REMARK  107  A    between atoms: _246  and  _247
REMARK  108  A    between atoms: _247  and  _248
REMARK  109  A    between atoms: _251  and  _253
REMARK  110  A    between atoms: _253  and  _254
REMARK  111  A    between atoms: _253  and  _256
REMARK  112  A    between atoms: _256  and  _257
REMARK  113  A    between atoms: _260  and  _262
REMARK  114  A    between atoms: _262  and  _263
REMARK  115  A    between atoms: _262  and  _265
REMARK  116  A    between atoms: _265  and  _266
REMARK  117  A    between atoms: _269  and  _271
REMARK  118  A    between atoms: _271  and  _272
REMARK  119  A    between atoms: _271  and  _274
REMARK  120  A    between atoms: _274  and  _275
REMARK  121  A    between atoms: _278  and  _280
REMARK  122  A    between atoms: _280  and  _281
REMARK  123  A    between atoms: _280  and  _283
REMARK  124  A    between atoms: _286  and  _288
REMARK  125  A    between atoms: _288  and  _289
REMARK  126  A    between atoms: _288  and  _291
REMARK  127  A    between atoms: _291  and  _292
REMARK  128  A    between atoms: _295  and  _297
REMARK  129  A    between atoms: _297  and  _298
REMARK  130  A    between atoms: _300  and  _302
REMARK  131  A    between atoms: _302  and  _303
REMARK  132  A    between atoms: _302  and  _305
REMARK  133  A    between atoms: _308  and  _309
REMARK  134  A    between atoms: _314  and  _316
REMARK  135  A    between atoms: _316  and  _317
REMARK  136  A    between atoms: _316  and  _319
REMARK  137  A    between atoms: _319  and  _320
REMARK  138  A    between atoms: _326  and  _328
REMARK  139  A    between atoms: _328  and  _329
REMARK  140  A    between atoms: _328  and  _331
REMARK  141  A    between atoms: _331  and  _332
REMARK  142  A    between atoms: _332  and  _333
REMARK  143  A    between atoms: _333  and  _334
REMARK  144  A    between atoms: _334  and  _335
REMARK  145  A    between atoms: _339  and  _341
REMARK  146  A    between atoms: _341  and  _342
REMARK  147  A    between atoms: _341  and  _344
REMARK  148  A    between atoms: _344  and  _345
REMARK  149  A    between atoms: _355  and  _357
REMARK  150  A    between atoms: _357  and  _358
REMARK  151  A    between atoms: _357  and  _360
REMARK  152  A    between atoms: _360  and  _361
REMARK  153  A    between atoms: _364  and  _366
REMARK  154  A    between atoms: _366  and  _367
REMARK  155  A    between atoms: _366  and  _369
REMARK  156  A    between atoms: _369  and  _370
REMARK  157  A    between atoms: _376  and  _378
REMARK  158  A    between atoms: _378  and  _379
REMARK  159  A    between atoms: _378  and  _381
REMARK  160  A    between atoms: _381  and  _382
REMARK  161  A    between atoms: _385  and  _387
REMARK  162  A    between atoms: _387  and  _388
REMARK  163  A    between atoms: _387  and  _390
REMARK  164  A    between atoms: _390  and  _391
REMARK  165  A    between atoms: _394  and  _396
REMARK  166  A    between atoms: _396  and  _397
REMARK  167  A    between atoms: _396  and  _399
REMARK  168  A    between atoms: _399  and  _400
REMARK  169  A    between atoms: _400  and  _401
REMARK  170  A    between atoms: _401  and  _402
REMARK  171  A    between atoms: _411  and  _413
REMARK  172  A    between atoms: _413  and  _414
REMARK  173  A    between atoms: _413  and  _416
REMARK  174  A    between atoms: _416  and  _417
REMARK  175  A    between atoms: _422  and  _424
REMARK  176  A    between atoms: _424  and  _425
REMARK  177  A    between atoms: _424  and  _427
REMARK  178  A    between atoms: _427  and  _428
REMARK  179  A    between atoms: _433  and  _435
REMARK  180  A    between atoms: _435  and  _436
REMARK  181  A    between atoms: _435  and  _438
REMARK  182  A    between atoms: _438  and  _439
REMARK  183  A    between atoms: _439  and  _440
REMARK  184  A    between atoms: _440  and  _441
REMARK  185  A    between atoms: _450  and  _452
REMARK  186  A    between atoms: _452  and  _453
REMARK  187  A    between atoms: _452  and  _455
REMARK  188  A    between atoms: _455  and  _456
REMARK  189  A    between atoms: _456  and  _457
REMARK  190  A    between atoms: _460  and  _462
REMARK  191  A    between atoms: _462  and  _463
REMARK  192  A    between atoms: _462  and  _465
REMARK  193  A    between atoms: _465  and  _466
REMARK  194  A    between atoms: _471  and  _472
REMARK  195  A    between atoms: _474  and  _476
REMARK  196  A    between atoms: _476  and  _477
REMARK  197  A    between atoms: _480  and  _482
REMARK  198  A    between atoms: _482  and  _483
REMARK  199  A    between atoms: _485  and  _487
REMARK  200  A    between atoms: _487  and  _488
REMARK  201  A    between atoms: _491  and  _493
REMARK  202  A    between atoms: _493  and  _494
REMARK  203  A    between atoms: _493  and  _496
REMARK  204  A    between atoms: _499  and  _501
REMARK  205  A    between atoms: _501  and  _502
REMARK  206  A    between atoms: _501  and  _504
REMARK  207  A    between atoms: _506  and  _508
REMARK  208  A    between atoms: _508  and  _509
REMARK  209  A    between atoms: _508  and  _511
REMARK  210  A    between atoms: _511  and  _512
REMARK  211  A    between atoms: _512  and  _513
REMARK                            x       y       z     vdW  Elec       q    Type
REMARK                         _______ _______ _______ _____ _____    ______ ____
ROOT
ATOM      1  O   HOH     1      16.086   2.989  98.684  0.00  0.00    +0.000 OA
ENDROOT
TORSDOF 0
REMARK  Name = ../refined-set-2016/1q1g/1q1g_pocket.pdb
REMARK  211 active torsions:
REMARK  status: ('A' for Active; 'I' for Inactive)
REMARK    1  A    between atoms: _1  and  _3
REMARK    2  A    between atoms: _3  and  _4
REMARK    3  A    between atoms: _3  and  _6
REMARK    4  A    between atoms: _9  and  _11
REMARK    5  A    between atoms: _11  and  _12
REMARK    6  A    between atoms: _14  and  _16
REMARK    7  A    between atoms: _16  and  _17
REMARK    8  A    between atoms: _16  and  _19
REMARK    9  A    between atoms: _19  and  _20
REMARK   10  A    between atoms: _23  and  _25
REMARK   11  A    between atoms: _25  and  _26
REMARK   12  A    between atoms: _25  and  _28
REMARK   13  A    between atoms: _28  and  _29
REMARK   14  A    between atoms: _34  and  _36
REMARK   15  A    between atoms: _36  and  _37
REMARK   16  A    between atoms: _39  and  _41
REMARK   17  A    between atoms: _41  and  _42
REMARK   18  A    between atoms: _41  and  _44
REMARK   19  A    between atoms: _47  and  _49
REMARK   20  A    between atoms: _49  and  _50
REMARK   21  A    between atoms: _52  and  _54
REMARK   22  A    between atoms: _54  and  _55
REMARK   23  A    between atoms: _54  and  _57
REMARK   24  A    between atoms: _57  and  _58
REMARK   25  A    between atoms: _60  and  _62
REMARK   26  A    between atoms: _62  and  _63
REMARK   27  A    between atoms: _62  and  _65
REMARK   28  A    between atoms: _65  and  _66
REMARK   29  A    between atoms: _66  and  _67
REMARK   30  A    between atoms: _67  and  _68
REMARK   31  A    between atoms: _77  and  _79
REMARK   32  A    between atoms: _79  and  _80
REMARK   33  A    between atoms: _82  and  _84
REMARK   34  A    between atoms: _84  and  _85
REMARK   35  A    between atoms: _84  and  _87
REMARK   36  A    between atoms: _87  and  _88
REMARK   37  A    between atoms: _90  and  _92
REMARK   38  A    between atoms: _92  and  _93
REMARK   39  A    between atoms: _92  and  _95
REMARK   40  A    between atoms: _97  and  _99
REMARK   41  A    between atoms: _99  and  _100
REMARK   42  A    between atoms: _102  and  _104
REMARK   43  A    between atoms: _104  and  _105
REMARK   44  A    between atoms: _104  and  _107
REMARK   45  A    between atoms: _107  and  _108
REMARK   46  A    between atoms: _110  and  _112
REMARK   47  A    between atoms: _112  and  _113
REMARK   48  A    between atoms: _112  and  _115
REMARK   49  A    between atoms: _115  and  _116
REMARK   50  A    between atoms: _119  and  _121
REMARK   51  A    between atoms: _121  and  _122
REMARK   52  A    between atoms: _121  and  _124
REMARK   53  A    between atoms: _124  and  _125
REMARK   54  A    between atoms: _127  and  _129
REMARK   55  A    between atoms: _129  and  _130
REMARK   56  A    between atoms: _129  and  _132
REMARK   57  A    between atoms: _135  and  _137
REMARK   58  A    between atoms: _137  and  _138
REMARK   59  A    between atoms: _137  and  _140
REMARK   60  A    between atoms: _140  and  _141
REMARK   61  A    between atoms: _143  and  _145
REMARK   62  A    between atoms: _145  and  _146
REMARK   63  A    between atoms: _145  and  _148
REMARK   64  A    between atoms: _148  and  _149
REMARK   65  A    between atoms: _151  and  _153
REMARK   66  A    between atoms: _153  and  _154
REMARK   67  A    between atoms: _153  and  _156
REMARK   68  A    between atoms: _156  and  _157
REMARK   69  A    between atoms: _160  and  _162
REMARK   70  A    between atoms: _162  and  _163
REMARK   71  A    between atoms: _162  and  _165
REMARK   72  A    between atoms: _165  and  _166
REMARK   73  A    between atoms: _166  and  _167
REMARK   74  A    between atoms: _169  and  _171
REMARK   75  A    between atoms: _171  and  _172
REMARK   76  A    between atoms: _171  and  _174
REMARK   77  A    between atoms: _174  and  _175
REMARK   78  A    between atoms: _180  and  _181
REMARK   79  A    between atoms: _183  and  _185
REMARK   80  A    between atoms: _185  and  _186
REMARK   81  A    between atoms: _185  and  _188
REMARK   82  A    between atoms: _188  and  _189
REMARK   83  A    between atoms: _194  and  _195
REMARK   84  A    between atoms: _197  and  _199
REMARK   85  A    between atoms: _199  and  _200
REMARK   86  A    between atoms: _199  and  _202
REMARK   87  A    between atoms: _202  and  _203
REMARK   88  A    between atoms: _206  and  _208
REMARK   89  A    between atoms: _208  and  _209
REMARK   90  A    between atoms: _208  and  _211
REMARK   91  A    between atoms: _214  and  _216
REMARK   92  A    between atoms: _216  and  _217
REMARK   93  A    between atoms: _216  and  _219
REMARK   94  A    between atoms: _222  and  _224
REMARK   95  A    between atoms: _224  and  _225
REMARK   96  A    between atoms: _224  and  _227
REMARK   97  A    between atoms: _227  and  _228
REMARK   98  A    between atoms: _228  and  _229
REMARK   99  A    between atoms: _232  and  _234
REMARK  100  A    between atoms: _234  and  _235
REMARK  101  A    between atoms: _234  and  _237
REMARK  102  A    between atoms: _237  and  _238
REMARK  103  A    between atoms: _238  and  _239
REMARK  104  A    between atoms: _241  and  _243
REMARK  105  A    between atoms: _243  and  _244
REMARK  106  A    between atoms: _243  and  _246
REMARK  107  A    between atoms: _246  and  _247
REMARK  108  A    between atoms: _247  and  _248
REMARK  109  A    between atoms: _251  and  _253
REMARK  110  A    between atoms: _253  and  _254
REMARK  111  A    between atoms: _253  and  _256
REMARK  112  A    between atoms: _256  and  _257
REMARK  113  A    between atoms: _260  and  _262
REMARK  114  A    between atoms: _262  and  _263
REMARK  115  A    between atoms: _262  and  _265
REMARK  116  A    between atoms: _265  and  _266
REMARK  117  A    between atoms: _269  and  _271
REMARK  118  A    between atoms: _271  and  _272
REMARK  119  A    between atoms: _271  and  _274
REMARK  120  A    between atoms: _274  and  _275
REMARK  121  A    between atoms: _278  and  _280
REMARK  122  A    between atoms: _280  and  _281
REMARK  123  A    between atoms: _280  and  _283
REMARK  124  A    between atoms: _286  and  _288
REMARK  125  A    between atoms: _288  and  _289
REMARK  126  A    between atoms: _288  and  _291
REMARK  127  A    between atoms: _291  and  _292
REMARK  128  A    between atoms: _295  and  _297
REMARK  129  A    between atoms: _297  and  _298
REMARK  130  A    between atoms: _300  and  _302
REMARK  131  A    between atoms: _302  and  _303
REMARK  132  A    between atoms: _302  and  _305
REMARK  133  A    between atoms: _308  and  _309
REMARK  134  A    between atoms: _314  and  _316
REMARK  135  A    between atoms: _316  and  _317
REMARK  136  A    between atoms: _316  and  _319
REMARK  137  A    between atoms: _319  and  _320
REMARK  138  A    between atoms: _326  and  _328
REMARK  139  A    between atoms: _328  and  _329
REMARK  140  A    between atoms: _328  and  _331
REMARK  141  A    between atoms: _331  and  _332
REMARK  142  A    between atoms: _332  and  _333
REMARK  143  A    between atoms: _333  and  _334
REMARK  144  A    between atoms: _334  and  _335
REMARK  145  A    between atoms: _339  and  _341
REMARK  146  A    between atoms: _341  and  _342
REMARK  147  A    between atoms: _341  and  _344
REMARK  148  A    between atoms: _344  and  _345
REMARK  149  A    between atoms: _355  and  _357
REMARK  150  A    between atoms: _357  and  _358
REMARK  151  A    between atoms: _357  and  _360
REMARK  152  A    between atoms: _360  and  _361
REMARK  153  A    between atoms: _364  and  _366
REMARK  154  A    between atoms: _366  and  _367
REMARK  155  A    between atoms: _366  and  _369
REMARK  156  A    between atoms: _369  and  _370
REMARK  157  A    between atoms: _376  and  _378
REMARK  158  A    between atoms: _378  and  _379
REMARK  159  A    between atoms: _378  and  _381
REMARK  160  A    between atoms: _381  and  _382
REMARK  161  A    between atoms: _385  and  _387
REMARK  162  A    between atoms: _387  and  _388
REMARK  163  A    between atoms: _387  and  _390
REMARK  164  A    between atoms: _390  and  _391
REMARK  165  A    between atoms: _394  and  _396
REMARK  166  A    between atoms: _396  and  _397
REMARK  167  A    between atoms: _396  and  _399
REMARK  168  A    between atoms: _399  and  _400
REMARK  169  A    between atoms: _400  and  _401
REMARK  170  A    between atoms: _401  and  _402
REMARK  171  A    between atoms: _411  and  _413
REMARK  172  A    between atoms: _413  and  _414
REMARK  173  A    between atoms: _413  and  _416
REMARK  174  A    between atoms: _416  and  _417
REMARK  175  A    between atoms: _422  and  _424
REMARK  176  A    between atoms: _424  and  _425
REMARK  177  A    between atoms: _424  and  _427
REMARK  178  A    between atoms: _427  and  _428
REMARK  179  A    between atoms: _433  and  _435
REMARK  180  A    between atoms: _435  and  _436
REMARK  181  A    between atoms: _435  and  _438
REMARK  182  A    between atoms: _438  and  _439
REMARK  183  A    between atoms: _439  and  _440
REMARK  184  A    between atoms: _440  and  _441
REMARK  185  A    between atoms: _450  and  _452
REMARK  186  A    between atoms: _452  and  _453
REMARK  187  A    between atoms: _452  and  _455
REMARK  188  A    between atoms: _455  and  _456
REMARK  189  A    between atoms: _456  and  _457
REMARK  190  A    between atoms: _460  and  _462
REMARK  191  A    between atoms: _462  and  _463
REMARK  192  A    between atoms: _462  and  _465
REMARK  193  A    between atoms: _465  and  _466
REMARK  194  A    between atoms: _471  and  _472
REMARK  195  A    between atoms: _474  and  _476
REMARK  196  A    between atoms: _476  and  _477
REMARK  197  A    between atoms: _480  and  _482
REMARK  198  A    between atoms: _482  and  _483
REMARK  199  A    between atoms: _485  and  _487
REMARK  200  A    between atoms: _487  and  _488
REMARK  201  A    between atoms: _491  and  _493
REMARK  202  A    between atoms: _493  and  _494
REMARK  203  A    between atoms: _493  and  _496
REMARK  204  A    between atoms: _499  and  _501
REMARK  205  A    between atoms: _501  and  _502
REMARK  206  A    between atoms: _501  and  _504
REMARK  207  A    between atoms: _506  and  _508
REMARK  208  A    between atoms: _508  and  _509
REMARK  209  A    between atoms: _508  and  _511
REMARK  210  A    between atoms: _511  and  _512
REMARK  211  A    between atoms: _512  and  _513
REMARK                            x       y       z     vdW  Elec       q    Type
REMARK                         _______ _______ _______ _____ _____    ______ ____
ROOT
ATOM      1  O   HOH     1      12.595   9.598  98.154  0.00  0.00    +0.000 OA
ENDROOT
TORSDOF 0
REMARK  Name = ../refined-set-2016/1q1g/1q1g_pocket.pdb
REMARK  211 active torsions:
REMARK  status: ('A' for Active; 'I' for Inactive)
REMARK    1  A    between atoms: _1  and  _3
REMARK    2  A    between atoms: _3  and  _4
REMARK    3  A    between atoms: _3  and  _6
REMARK    4  A    between atoms: _9  and  _11
REMARK    5  A    between atoms: _11  and  _12
REMARK    6  A    between atoms: _14  and  _16
REMARK    7  A    between atoms: _16  and  _17
REMARK    8  A    between atoms: _16  and  _19
REMARK    9  A    between atoms: _19  and  _20
REMARK   10  A    between atoms: _23  and  _25
REMARK   11  A    between atoms: _25  and  _26
REMARK   12  A    between atoms: _25  and  _28
REMARK   13  A    between atoms: _28  and  _29
REMARK   14  A    between atoms: _34  and  _36
REMARK   15  A    between atoms: _36  and  _37
REMARK   16  A    between atoms: _39  and  _41
REMARK   17  A    between atoms: _41  and  _42
REMARK   18  A    between atoms: _41  and  _44
REMARK   19  A    between atoms: _47  and  _49
REMARK   20  A    between atoms: _49  and  _50
REMARK   21  A    between atoms: _52  and  _54
REMARK   22  A    between atoms: _54  and  _55
REMARK   23  A    between atoms: _54  and  _57
REMARK   24  A    between atoms: _57  and  _58
REMARK   25  A    between atoms: _60  and  _62
REMARK   26  A    between atoms: _62  and  _63
REMARK   27  A    between atoms: _62  and  _65
REMARK   28  A    between atoms: _65  and  _66
REMARK   29  A    between atoms: _66  and  _67
REMARK   30  A    between atoms: _67  and  _68
REMARK   31  A    between atoms: _77  and  _79
REMARK   32  A    between atoms: _79  and  _80
REMARK   33  A    between atoms: _82  and  _84
REMARK   34  A    between atoms: _84  and  _85
REMARK   35  A    between atoms: _84  and  _87
REMARK   36  A    between atoms: _87  and  _88
REMARK   37  A    between atoms: _90  and  _92
REMARK   38  A    between atoms: _92  and  _93
REMARK   39  A    between atoms: _92  and  _95
REMARK   40  A    between atoms: _97  and  _99
REMARK   41  A    between atoms: _99  and  _100
REMARK   42  A    between atoms: _102  and  _104
REMARK   43  A    between atoms: _104  and  _105
REMARK   44  A    between atoms: _104  and  _107
REMARK   45  A    between atoms: _107  and  _108
REMARK   46  A    between atoms: _110  and  _112
REMARK   47  A    between atoms: _112  and  _113
REMARK   48  A    between atoms: _112  and  _115
REMARK   49  A    between atoms: _115  and  _116
REMARK   50  A    between atoms: _119  and  _121
REMARK   51  A    between atoms: _121  and  _122
REMARK   52  A    between atoms: _121  and  _124
REMARK   53  A    between atoms: _124  and  _125
REMARK   54  A    between atoms: _127  and  _129
REMARK   55  A    between atoms: _129  and  _130
REMARK   56  A    between atoms: _129  and  _132
REMARK   57  A    between atoms: _135  and  _137
REMARK   58  A    between atoms: _137  and  _138
REMARK   59  A    between atoms: _137  and  _140
REMARK   60  A    between atoms: _140  and  _141
REMARK   61  A    between atoms: _143  and  _145
REMARK   62  A    between atoms: _145  and  _146
REMARK   63  A    between atoms: _145  and  _148
REMARK   64  A    between atoms: _148  and  _149
REMARK   65  A    between atoms: _151  and  _153
REMARK   66  A    between atoms: _153  and  _154
REMARK   67  A    between atoms: _153  and  _156
REMARK   68  A    between atoms: _156  and  _157
REMARK   69  A    between atoms: _160  and  _162
REMARK   70  A    between atoms: _162  and  _163
REMARK   71  A    between atoms: _162  and  _165
REMARK   72  A    between atoms: _165  and  _166
REMARK   73  A    between atoms: _166  and  _167
REMARK   74  A    between atoms: _169  and  _171
REMARK   75  A    between atoms: _171  and  _172
REMARK   76  A    between atoms: _171  and  _174
REMARK   77  A    between atoms: _174  and  _175
REMARK   78  A    between atoms: _180  and  _181
REMARK   79  A    between atoms: _183  and  _185
REMARK   80  A    between atoms: _185  and  _186
REMARK   81  A    between atoms: _185  and  _188
REMARK   82  A    between atoms: _188  and  _189
REMARK   83  A    between atoms: _194  and  _195
REMARK   84  A    between atoms: _197  and  _199
REMARK   85  A    between atoms: _199  and  _200
REMARK   86  A    between atoms: _199  and  _202
REMARK   87  A    between atoms: _202  and  _203
REMARK   88  A    between atoms: _206  and  _208
REMARK   89  A    between atoms: _208  and  _209
REMARK   90  A    between atoms: _208  and  _211
REMARK   91  A    between atoms: _214  and  _216
REMARK   92  A    between atoms: _216  and  _217
REMARK   93  A    between atoms: _216  and  _219
REMARK   94  A    between atoms: _222  and  _224
REMARK   95  A    between atoms: _224  and  _225
REMARK   96  A    between atoms: _224  and  _227
REMARK   97  A    between atoms: _227  and  _228
REMARK   98  A    between atoms: _228  and  _229
REMARK   99  A    between atoms: _232  and  _234
REMARK  100  A    between atoms: _234  and  _235
REMARK  101  A    between atoms: _234  and  _237
REMARK  102  A    between atoms: _237  and  _238
REMARK  103  A    between atoms: _238  and  _239
REMARK  104  A    between atoms: _241  and  _243
REMARK  105  A    between atoms: _243  and  _244
REMARK  106  A    between atoms: _243  and  _246
REMARK  107  A    between atoms: _246  and  _247
REMARK  108  A    between atoms: _247  and  _248
REMARK  109  A    between atoms: _251  and  _253
REMARK  110  A    between atoms: _253  and  _254
REMARK  111  A    between atoms: _253  and  _256
REMARK  112  A    between atoms: _256  and  _257
REMARK  113  A    between atoms: _260  and  _262
REMARK  114  A    between atoms: _262  and  _263
REMARK  115  A    between atoms: _262  and  _265
REMARK  116  A    between atoms: _265  and  _266
REMARK  117  A    between atoms: _269  and  _271
REMARK  118  A    between atoms: _271  and  _272
REMARK  119  A    between atoms: _271  and  _274
REMARK  120  A    between atoms: _274  and  _275
REMARK  121  A    between atoms: _278  and  _280
REMARK  122  A    between atoms: _280  and  _281
REMARK  123  A    between atoms: _280  and  _283
REMARK  124  A    between atoms: _286  and  _288
REMARK  125  A    between atoms: _288  and  _289
REMARK  126  A    between atoms: _288  and  _291
REMARK  127  A    between atoms: _291  and  _292
REMARK  128  A    between atoms: _295  and  _297
REMARK  129  A    between atoms: _297  and  _298
REMARK  130  A    between atoms: _300  and  _302
REMARK  131  A    between atoms: _302  and  _303
REMARK  132  A    between atoms: _302  and  _305
REMARK  133  A    between atoms: _308  and  _309
REMARK  134  A    between atoms: _314  and  _316
REMARK  135  A    between atoms: _316  and  _317
REMARK  136  A    between atoms: _316  and  _319
REMARK  137  A    between atoms: _319  and  _320
REMARK  138  A    between atoms: _326  and  _328
REMARK  139  A    between atoms: _328  and  _329
REMARK  140  A    between atoms: _328  and  _331
REMARK  141  A    between atoms: _331  and  _332
REMARK  142  A    between atoms: _332  and  _333
REMARK  143  A    between atoms: _333  and  _334
REMARK  144  A    between atoms: _334  and  _335
REMARK  145  A    between atoms: _339  and  _341
REMARK  146  A    between atoms: _341  and  _342
REMARK  147  A    between atoms: _341  and  _344
REMARK  148  A    between atoms: _344  and  _345
REMARK  149  A    between atoms: _355  and  _357
REMARK  150  A    between atoms: _357  and  _358
REMARK  151  A    between atoms: _357  and  _360
REMARK  152  A    between atoms: _360  and  _361
REMARK  153  A    between atoms: _364  and  _366
REMARK  154  A    between atoms: _366  and  _367
REMARK  155  A    between atoms: _366  and  _369
REMARK  156  A    between atoms: _369  and  _370
REMARK  157  A    between atoms: _376  and  _378
REMARK  158  A    between atoms: _378  and  _379
REMARK  159  A    between atoms: _378  and  _381
REMARK  160  A    between atoms: _381  and  _382
REMARK  161  A    between atoms: _385  and  _387
REMARK  162  A    between atoms: _387  and  _388
REMARK  163  A    between atoms: _387  and  _390
REMARK  164  A    between atoms: _390  and  _391
REMARK  165  A    between atoms: _394  and  _396
REMARK  166  A    between atoms: _396  and  _397
REMARK  167  A    between atoms: _396  and  _399
REMARK  168  A    between atoms: _399  and  _400
REMARK  169  A    between atoms: _400  and  _401
REMARK  170  A    between atoms: _401  and  _402
REMARK  171  A    between atoms: _411  and  _413
REMARK  172  A    between atoms: _413  and  _414
REMARK  173  A    between atoms: _413  and  _416
REMARK  174  A    between atoms: _416  and  _417
REMARK  175  A    between atoms: _422  and  _424
REMARK  176  A    between atoms: _424  and  _425
REMARK  177  A    between atoms: _424  and  _427
REMARK  178  A    between atoms: _427  and  _428
REMARK  179  A    between atoms: _433  and  _435
REMARK  180  A    between atoms: _435  and  _436
REMARK  181  A    between atoms: _435  and  _438
REMARK  182  A    between atoms: _438  and  _439
REMARK  183  A    between atoms: _439  and  _440
REMARK  184  A    between atoms: _440  and  _441
REMARK  185  A    between atoms: _450  and  _452
REMARK  186  A    between atoms: _452  and  _453
REMARK  187  A    between atoms: _452  and  _455
REMARK  188  A    between atoms: _455  and  _456
REMARK  189  A    between atoms: _456  and  _457
REMARK  190  A    between atoms: _460  and  _462
REMARK  191  A    between atoms: _462  and  _463
REMARK  192  A    between atoms: _462  and  _465
REMARK  193  A    between atoms: _465  and  _466
REMARK  194  A    between atoms: _471  and  _472
REMARK  195  A    between atoms: _474  and  _476
REMARK  196  A    between atoms: _476  and  _477
REMARK  197  A    between atoms: _480  and  _482
REMARK  198  A    between atoms: _482  and  _483
REMARK  199  A    between atoms: _485  and  _487
REMARK  200  A    between atoms: _487  and  _488
REMARK  201  A    between atoms: _491  and  _493
REMARK  202  A    between atoms: _493  and  _494
REMARK  203  A    between atoms: _493  and  _496
REMARK  204  A    between atoms: _499  and  _501
REMARK  205  A    between atoms: _501  and  _502
REMARK  206  A    between atoms: _501  and  _504
REMARK  207  A    between atoms: _506  and  _508
REMARK  208  A    between atoms: _508  and  _509
REMARK  209  A    between atoms: _508  and  _511
REMARK  210  A    between atoms: _511  and  _512
REMARK  211  A    between atoms: _512  and  _513
REMARK                            x       y       z     vdW  Elec       q    Type
REMARK                         _______ _______ _______ _____ _____    ______ ____
ROOT
ATOM      1  O   HOH     1      11.889   9.814  95.683  0.00  0.00    +0.000 OA
ENDROOT
TORSDOF 0
REMARK  Name = ../refined-set-2016/1q1g/1q1g_pocket.pdb
REMARK  211 active torsions:
REMARK  status: ('A' for Active; 'I' for Inactive)
REMARK    1  A    between atoms: _1  and  _3
REMARK    2  A    between atoms: _3  and  _4
REMARK    3  A    between atoms: _3  and  _6
REMARK    4  A    between atoms: _9  and  _11
REMARK    5  A    between atoms: _11  and  _12
REMARK    6  A    between atoms: _14  and  _16
REMARK    7  A    between atoms: _16  and  _17
REMARK    8  A    between atoms: _16  and  _19
REMARK    9  A    between atoms: _19  and  _20
REMARK   10  A    between atoms: _23  and  _25
REMARK   11  A    between atoms: _25  and  _26
REMARK   12  A    between atoms: _25  and  _28
REMARK   13  A    between atoms: _28  and  _29
REMARK   14  A    between atoms: _34  and  _36
REMARK   15  A    between atoms: _36  and  _37
REMARK   16  A    between atoms: _39  and  _41
REMARK   17  A    between atoms: _41  and  _42
REMARK   18  A    between atoms: _41  and  _44
REMARK   19  A    between atoms: _47  and  _49
REMARK   20  A    between atoms: _49  and  _50
REMARK   21  A    between atoms: _52  and  _54
REMARK   22  A    between atoms: _54  and  _55
REMARK   23  A    between atoms: _54  and  _57
REMARK   24  A    between atoms: _57  and  _58
REMARK   25  A    between atoms: _60  and  _62
REMARK   26  A    between atoms: _62  and  _63
REMARK   27  A    between atoms: _62  and  _65
REMARK   28  A    between atoms: _65  and  _66
REMARK   29  A    between atoms: _66  and  _67
REMARK   30  A    between atoms: _67  and  _68
REMARK   31  A    between atoms: _77  and  _79
REMARK   32  A    between atoms: _79  and  _80
REMARK   33  A    between atoms: _82  and  _84
REMARK   34  A    between atoms: _84  and  _85
REMARK   35  A    between atoms: _84  and  _87
REMARK   36  A    between atoms: _87  and  _88
REMARK   37  A    between atoms: _90  and  _92
REMARK   38  A    between atoms: _92  and  _93
REMARK   39  A    between atoms: _92  and  _95
REMARK   40  A    between atoms: _97  and  _99
REMARK   41  A    between atoms: _99  and  _100
REMARK   42  A    between atoms: _102  and  _104
REMARK   43  A    between atoms: _104  and  _105
REMARK   44  A    between atoms: _104  and  _107
REMARK   45  A    between atoms: _107  and  _108
REMARK   46  A    between atoms: _110  and  _112
REMARK   47  A    between atoms: _112  and  _113
REMARK   48  A    between atoms: _112  and  _115
REMARK   49  A    between atoms: _115  and  _116
REMARK   50  A    between atoms: _119  and  _121
REMARK   51  A    between atoms: _121  and  _122
REMARK   52  A    between atoms: _121  and  _124
REMARK   53  A    between atoms: _124  and  _125
REMARK   54  A    between atoms: _127  and  _129
REMARK   55  A    between atoms: _129  and  _130
REMARK   56  A    between atoms: _129  and  _132
REMARK   57  A    between atoms: _135  and  _137
REMARK   58  A    between atoms: _137  and  _138
REMARK   59  A    between atoms: _137  and  _140
REMARK   60  A    between atoms: _140  and  _141
REMARK   61  A    between atoms: _143  and  _145
REMARK   62  A    between atoms: _145  and  _146
REMARK   63  A    between atoms: _145  and  _148
REMARK   64  A    between atoms: _148  and  _149
REMARK   65  A    between atoms: _151  and  _153
REMARK   66  A    between atoms: _153  and  _154
REMARK   67  A    between atoms: _153  and  _156
REMARK   68  A    between atoms: _156  and  _157
REMARK   69  A    between atoms: _160  and  _162
REMARK   70  A    between atoms: _162  and  _163
REMARK   71  A    between atoms: _162  and  _165
REMARK   72  A    between atoms: _165  and  _166
REMARK   73  A    between atoms: _166  and  _167
REMARK   74  A    between atoms: _169  and  _171
REMARK   75  A    between atoms: _171  and  _172
REMARK   76  A    between atoms: _171  and  _174
REMARK   77  A    between atoms: _174  and  _175
REMARK   78  A    between atoms: _180  and  _181
REMARK   79  A    between atoms: _183  and  _185
REMARK   80  A    between atoms: _185  and  _186
REMARK   81  A    between atoms: _185  and  _188
REMARK   82  A    between atoms: _188  and  _189
REMARK   83  A    between atoms: _194  and  _195
REMARK   84  A    between atoms: _197  and  _199
REMARK   85  A    between atoms: _199  and  _200
REMARK   86  A    between atoms: _199  and  _202
REMARK   87  A    between atoms: _202  and  _203
REMARK   88  A    between atoms: _206  and  _208
REMARK   89  A    between atoms: _208  and  _209
REMARK   90  A    between atoms: _208  and  _211
REMARK   91  A    between atoms: _214  and  _216
REMARK   92  A    between atoms: _216  and  _217
REMARK   93  A    between atoms: _216  and  _219
REMARK   94  A    between atoms: _222  and  _224
REMARK   95  A    between atoms: _224  and  _225
REMARK   96  A    between atoms: _224  and  _227
REMARK   97  A    between atoms: _227  and  _228
REMARK   98  A    between atoms: _228  and  _229
REMARK   99  A    between atoms: _232  and  _234
REMARK  100  A    between atoms: _234  and  _235
REMARK  101  A    between atoms: _234  and  _237
REMARK  102  A    between atoms: _237  and  _238
REMARK  103  A    between atoms: _238  and  _239
REMARK  104  A    between atoms: _241  and  _243
REMARK  105  A    between atoms: _243  and  _244
REMARK  106  A    between atoms: _243  and  _246
REMARK  107  A    between atoms: _246  and  _247
REMARK  108  A    between atoms: _247  and  _248
REMARK  109  A    between atoms: _251  and  _253
REMARK  110  A    between atoms: _253  and  _254
REMARK  111  A    between atoms: _253  and  _256
REMARK  112  A    between atoms: _256  and  _257
REMARK  113  A    between atoms: _260  and  _262
REMARK  114  A    between atoms: _262  and  _263
REMARK  115  A    between atoms: _262  and  _265
REMARK  116  A    between atoms: _265  and  _266
REMARK  117  A    between atoms: _269  and  _271
REMARK  118  A    between atoms: _271  and  _272
REMARK  119  A    between atoms: _271  and  _274
REMARK  120  A    between atoms: _274  and  _275
REMARK  121  A    between atoms: _278  and  _280
REMARK  122  A    between atoms: _280  and  _281
REMARK  123  A    between atoms: _280  and  _283
REMARK  124  A    between atoms: _286  and  _288
REMARK  125  A    between atoms: _288  and  _289
REMARK  126  A    between atoms: _288  and  _291
REMARK  127  A    between atoms: _291  and  _292
REMARK  128  A    between atoms: _295  and  _297
REMARK  129  A    between atoms: _297  and  _298
REMARK  130  A    between atoms: _300  and  _302
REMARK  131  A    between atoms: _302  and  _303
REMARK  132  A    between atoms: _302  and  _305
REMARK  133  A    between atoms: _308  and  _309
REMARK  134  A    between atoms: _314  and  _316
REMARK  135  A    between atoms: _316  and  _317
REMARK  136  A    between atoms: _316  and  _319
REMARK  137  A    between atoms: _319  and  _320
REMARK  138  A    between atoms: _326  and  _328
REMARK  139  A    between atoms: _328  and  _329
REMARK  140  A    between atoms: _328  and  _331
REMARK  141  A    between atoms: _331  and  _332
REMARK  142  A    between atoms: _332  and  _333
REMARK  143  A    between atoms: _333  and  _334
REMARK  144  A    between atoms: _334  and  _335
REMARK  145  A    between atoms: _339  and  _341
REMARK  146  A    between atoms: _341  and  _342
REMARK  147  A    between atoms: _341  and  _344
REMARK  148  A    between atoms: _344  and  _345
REMARK  149  A    between atoms: _355  and  _357
REMARK  150  A    between atoms: _357  and  _358
REMARK  151  A    between atoms: _357  and  _360
REMARK  152  A    between atoms: _360  and  _361
REMARK  153  A    between atoms: _364  and  _366
REMARK  154  A    between atoms: _366  and  _367
REMARK  155  A    between atoms: _366  and  _369
REMARK  156  A    between atoms: _369  and  _370
REMARK  157  A    between atoms: _376  and  _378
REMARK  158  A    between atoms: _378  and  _379
REMARK  159  A    between atoms: _378  and  _381
REMARK  160  A    between atoms: _381  and  _382
REMARK  161  A    between atoms: _385  and  _387
REMARK  162  A    between atoms: _387  and  _388
REMARK  163  A    between atoms: _387  and  _390
REMARK  164  A    between atoms: _390  and  _391
REMARK  165  A    between atoms: _394  and  _396
REMARK  166  A    between atoms: _396  and  _397
REMARK  167  A    between atoms: _396  and  _399
REMARK  168  A    between atoms: _399  and  _400
REMARK  169  A    between atoms: _400  and  _401
REMARK  170  A    between atoms: _401  and  _402
REMARK  171  A    between atoms: _411  and  _413
REMARK  172  A    between atoms: _413  and  _414
REMARK  173  A    between atoms: _413  and  _416
REMARK  174  A    between atoms: _416  and  _417
REMARK  175  A    between atoms: _422  and  _424
REMARK  176  A    between atoms: _424  and  _425
REMARK  177  A    between atoms: _424  and  _427
REMARK  178  A    between atoms: _427  and  _428
REMARK  179  A    between atoms: _433  and  _435
REMARK  180  A    between atoms: _435  and  _436
REMARK  181  A    between atoms: _435  and  _438
REMARK  182  A    between atoms: _438  and  _439
REMARK  183  A    between atoms: _439  and  _440
REMARK  184  A    between atoms: _440  and  _441
REMARK  185  A    between atoms: _450  and  _452
REMARK  186  A    between atoms: _452  and  _453
REMARK  187  A    between atoms: _452  and  _455
REMARK  188  A    between atoms: _455  and  _456
REMARK  189  A    between atoms: _456  and  _457
REMARK  190  A    between atoms: _460  and  _462
REMARK  191  A    between atoms: _462  and  _463
REMARK  192  A    between atoms: _462  and  _465
REMARK  193  A    between atoms: _465  and  _466
REMARK  194  A    between atoms: _471  and  _472
REMARK  195  A    between atoms: _474  and  _476
REMARK  196  A    between atoms: _476  and  _477
REMARK  197  A    between atoms: _480  and  _482
REMARK  198  A    between atoms: _482  and  _483
REMARK  199  A    between atoms: _485  and  _487
REMARK  200  A    between atoms: _487  and  _488
REMARK  201  A    between atoms: _491  and  _493
REMARK  202  A    between atoms: _493  and  _494
REMARK  203  A    between atoms: _493  and  _496
REMARK  204  A    between atoms: _499  and  _501
REMARK  205  A    between atoms: _501  and  _502
REMARK  206  A    between atoms: _501  and  _504
REMARK  207  A    between atoms: _506  and  _508
REMARK  208  A    between atoms: _508  and  _509
REMARK  209  A    between atoms: _508  and  _511
REMARK  210  A    between atoms: _511  and  _512
REMARK  211  A    between atoms: _512  and  _513
REMARK                            x       y       z     vdW  Elec       q    Type
REMARK                         _______ _______ _______ _____ _____    ______ ____
ROOT
ATOM      1  O   HOH     1      13.796   7.329  92.832  0.00  0.00    +0.000 OA
ENDROOT
TORSDOF 0
REMARK  Name = ../refined-set-2016/1q1g/1q1g_pocket.pdb
REMARK  211 active torsions:
REMARK  status: ('A' for Active; 'I' for Inactive)
REMARK    1  A    between atoms: _1  and  _3
REMARK    2  A    between atoms: _3  and  _4
REMARK    3  A    between atoms: _3  and  _6
REMARK    4  A    between atoms: _9  and  _11
REMARK    5  A    between atoms: _11  and  _12
REMARK    6  A    between atoms: _14  and  _16
REMARK    7  A    between atoms: _16  and  _17
REMARK    8  A    between atoms: _16  and  _19
REMARK    9  A    between atoms: _19  and  _20
REMARK   10  A    between atoms: _23  and  _25
REMARK   11  A    between atoms: _25  and  _26
REMARK   12  A    between atoms: _25  and  _28
REMARK   13  A    between atoms: _28  and  _29
REMARK   14  A    between atoms: _34  and  _36
REMARK   15  A    between atoms: _36  and  _37
REMARK   16  A    between atoms: _39  and  _41
REMARK   17  A    between atoms: _41  and  _42
REMARK   18  A    between atoms: _41  and  _44
REMARK   19  A    between atoms: _47  and  _49
REMARK   20  A    between atoms: _49  and  _50
REMARK   21  A    between atoms: _52  and  _54
REMARK   22  A    between atoms: _54  and  _55
REMARK   23  A    between atoms: _54  and  _57
REMARK   24  A    between atoms: _57  and  _58
REMARK   25  A    between atoms: _60  and  _62
REMARK   26  A    between atoms: _62  and  _63
REMARK   27  A    between atoms: _62  and  _65
REMARK   28  A    between atoms: _65  and  _66
REMARK   29  A    between atoms: _66  and  _67
REMARK   30  A    between atoms: _67  and  _68
REMARK   31  A    between atoms: _77  and  _79
REMARK   32  A    between atoms: _79  and  _80
REMARK   33  A    between atoms: _82  and  _84
REMARK   34  A    between atoms: _84  and  _85
REMARK   35  A    between atoms: _84  and  _87
REMARK   36  A    between atoms: _87  and  _88
REMARK   37  A    between atoms: _90  and  _92
REMARK   38  A    between atoms: _92  and  _93
REMARK   39  A    between atoms: _92  and  _95
REMARK   40  A    between atoms: _97  and  _99
REMARK   41  A    between atoms: _99  and  _100
REMARK   42  A    between atoms: _102  and  _104
REMARK   43  A    between atoms: _104  and  _105
REMARK   44  A    between atoms: _104  and  _107
REMARK   45  A    between atoms: _107  and  _108
REMARK   46  A    between atoms: _110  and  _112
REMARK   47  A    between atoms: _112  and  _113
REMARK   48  A    between atoms: _112  and  _115
REMARK   49  A    between atoms: _115  and  _116
REMARK   50  A    between atoms: _119  and  _121
REMARK   51  A    between atoms: _121  and  _122
REMARK   52  A    between atoms: _121  and  _124
REMARK   53  A    between atoms: _124  and  _125
REMARK   54  A    between atoms: _127  and  _129
REMARK   55  A    between atoms: _129  and  _130
REMARK   56  A    between atoms: _129  and  _132
REMARK   57  A    between atoms: _135  and  _137
REMARK   58  A    between atoms: _137  and  _138
REMARK   59  A    between atoms: _137  and  _140
REMARK   60  A    between atoms: _140  and  _141
REMARK   61  A    between atoms: _143  and  _145
REMARK   62  A    between atoms: _145  and  _146
REMARK   63  A    between atoms: _145  and  _148
REMARK   64  A    between atoms: _148  and  _149
REMARK   65  A    between atoms: _151  and  _153
REMARK   66  A    between atoms: _153  and  _154
REMARK   67  A    between atoms: _153  and  _156
REMARK   68  A    between atoms: _156  and  _157
REMARK   69  A    between atoms: _160  and  _162
REMARK   70  A    between atoms: _162  and  _163
REMARK   71  A    between atoms: _162  and  _165
REMARK   72  A    between atoms: _165  and  _166
REMARK   73  A    between atoms: _166  and  _167
REMARK   74  A    between atoms: _169  and  _171
REMARK   75  A    between atoms: _171  and  _172
REMARK   76  A    between atoms: _171  and  _174
REMARK   77  A    between atoms: _174  and  _175
REMARK   78  A    between atoms: _180  and  _181
REMARK   79  A    between atoms: _183  and  _185
REMARK   80  A    between atoms: _185  and  _186
REMARK   81  A    between atoms: _185  and  _188
REMARK   82  A    between atoms: _188  and  _189
REMARK   83  A    between atoms: _194  and  _195
REMARK   84  A    between atoms: _197  and  _199
REMARK   85  A    between atoms: _199  and  _200
REMARK   86  A    between atoms: _199  and  _202
REMARK   87  A    between atoms: _202  and  _203
REMARK   88  A    between atoms: _206  and  _208
REMARK   89  A    between atoms: _208  and  _209
REMARK   90  A    between atoms: _208  and  _211
REMARK   91  A    between atoms: _214  and  _216
REMARK   92  A    between atoms: _216  and  _217
REMARK   93  A    between atoms: _216  and  _219
REMARK   94  A    between atoms: _222  and  _224
REMARK   95  A    between atoms: _224  and  _225
REMARK   96  A    between atoms: _224  and  _227
REMARK   97  A    between atoms: _227  and  _228
REMARK   98  A    between atoms: _228  and  _229
REMARK   99  A    between atoms: _232  and  _234
REMARK  100  A    between atoms: _234  and  _235
REMARK  101  A    between atoms: _234  and  _237
REMARK  102  A    between atoms: _237  and  _238
REMARK  103  A    between atoms: _238  and  _239
REMARK  104  A    between atoms: _241  and  _243
REMARK  105  A    between atoms: _243  and  _244
REMARK  106  A    between atoms: _243  and  _246
REMARK  107  A    between atoms: _246  and  _247
REMARK  108  A    between atoms: _247  and  _248
REMARK  109  A    between atoms: _251  and  _253
REMARK  110  A    between atoms: _253  and  _254
REMARK  111  A    between atoms: _253  and  _256
REMARK  112  A    between atoms: _256  and  _257
REMARK  113  A    between atoms: _260  and  _262
REMARK  114  A    between atoms: _262  and  _263
REMARK  115  A    between atoms: _262  and  _265
REMARK  116  A    between atoms: _265  and  _266
REMARK  117  A    between atoms: _269  and  _271
REMARK  118  A    between atoms: _271  and  _272
REMARK  119  A    between atoms: _271  and  _274
REMARK  120  A    between atoms: _274  and  _275
REMARK  121  A    between atoms: _278  and  _280
REMARK  122  A    between atoms: _280  and  _281
REMARK  123  A    between atoms: _280  and  _283
REMARK  124  A    between atoms: _286  and  _288
REMARK  125  A    between atoms: _288  and  _289
REMARK  126  A    between atoms: _288  and  _291
REMARK  127  A    between atoms: _291  and  _292
REMARK  128  A    between atoms: _295  and  _297
REMARK  129  A    between atoms: _297  and  _298
REMARK  130  A    between atoms: _300  and  _302
REMARK  131  A    between atoms: _302  and  _303
REMARK  132  A    between atoms: _302  and  _305
REMARK  133  A    between atoms: _308  and  _309
REMARK  134  A    between atoms: _314  and  _316
REMARK  135  A    between atoms: _316  and  _317
REMARK  136  A    between atoms: _316  and  _319
REMARK  137  A    between atoms: _319  and  _320
REMARK  138  A    between atoms: _326  and  _328
REMARK  139  A    between atoms: _328  and  _329
REMARK  140  A    between atoms: _328  and  _331
REMARK  141  A    between atoms: _331  and  _332
REMARK  142  A    between atoms: _332  and  _333
REMARK  143  A    between atoms: _333  and  _334
REMARK  144  A    between atoms: _334  and  _335
REMARK  145  A    between atoms: _339  and  _341
REMARK  146  A    between atoms: _341  and  _342
REMARK  147  A    between atoms: _341  and  _344
REMARK  148  A    between atoms: _344  and  _345
REMARK  149  A    between atoms: _355  and  _357
REMARK  150  A    between atoms: _357  and  _358
REMARK  151  A    between atoms: _357  and  _360
REMARK  152  A    between atoms: _360  and  _361
REMARK  153  A    between atoms: _364  and  _366
REMARK  154  A    between atoms: _366  and  _367
REMARK  155  A    between atoms: _366  and  _369
REMARK  156  A    between atoms: _369  and  _370
REMARK  157  A    between atoms: _376  and  _378
REMARK  158  A    between atoms: _378  and  _379
REMARK  159  A    between atoms: _378  and  _381
REMARK  160  A    between atoms: _381  and  _382
REMARK  161  A    between atoms: _385  and  _387
REMARK  162  A    between atoms: _387  and  _388
REMARK  163  A    between atoms: _387  and  _390
REMARK  164  A    between atoms: _390  and  _391
REMARK  165  A    between atoms: _394  and  _396
REMARK  166  A    between atoms: _396  and  _397
REMARK  167  A    between atoms: _396  and  _399
REMARK  168  A    between atoms: _399  and  _400
REMARK  169  A    between atoms: _400  and  _401
REMARK  170  A    between atoms: _401  and  _402
REMARK  171  A    between atoms: _411  and  _413
REMARK  172  A    between atoms: _413  and  _414
REMARK  173  A    between atoms: _413  and  _416
REMARK  174  A    between atoms: _416  and  _417
REMARK  175  A    between atoms: _422  and  _424
REMARK  176  A    between atoms: _424  and  _425
REMARK  177  A    between atoms: _424  and  _427
REMARK  178  A    between atoms: _427  and  _428
REMARK  179  A    between atoms: _433  and  _435
REMARK  180  A    between atoms: _435  and  _436
REMARK  181  A    between atoms: _435  and  _438
REMARK  182  A    between atoms: _438  and  _439
REMARK  183  A    between atoms: _439  and  _440
REMARK  184  A    between atoms: _440  and  _441
REMARK  185  A    between atoms: _450  and  _452
REMARK  186  A    between atoms: _452  and  _453
REMARK  187  A    between atoms: _452  and  _455
REMARK  188  A    between atoms: _455  and  _456
REMARK  189  A    between atoms: _456  and  _457
REMARK  190  A    between atoms: _460  and  _462
REMARK  191  A    between atoms: _462  and  _463
REMARK  192  A    between atoms: _462  and  _465
REMARK  193  A    between atoms: _465  and  _466
REMARK  194  A    between atoms: _471  and  _472
REMARK  195  A    between atoms: _474  and  _476
REMARK  196  A    between atoms: _476  and  _477
REMARK  197  A    between atoms: _480  and  _482
REMARK  198  A    between atoms: _482  and  _483
REMARK  199  A    between atoms: _485  and  _487
REMARK  200  A    between atoms: _487  and  _488
REMARK  201  A    between atoms: _491  and  _493
REMARK  202  A    between atoms: _493  and  _494
REMARK  203  A    between atoms: _493  and  _496
REMARK  204  A    between atoms: _499  and  _501
REMARK  205  A    between atoms: _501  and  _502
REMARK  206  A    between atoms: _501  and  _504
REMARK  207  A    between atoms: _506  and  _508
REMARK  208  A    between atoms: _508  and  _509
REMARK  209  A    between atoms: _508  and  _511
REMARK  210  A    between atoms: _511  and  _512
REMARK  211  A    between atoms: _512  and  _513
REMARK                            x       y       z     vdW  Elec       q    Type
REMARK                         _______ _______ _______ _____ _____    ______ ____
ROOT
ATOM      1  O   HOH     1       6.073   5.554  95.818  0.00  0.00    +0.000 OA
ENDROOT
TORSDOF 0
REMARK  Name = ../refined-set-2016/1q1g/1q1g_pocket.pdb
REMARK  211 active torsions:
REMARK  status: ('A' for Active; 'I' for Inactive)
REMARK    1  A    between atoms: _1  and  _3
REMARK    2  A    between atoms: _3  and  _4
REMARK    3  A    between atoms: _3  and  _6
REMARK    4  A    between atoms: _9  and  _11
REMARK    5  A    between atoms: _11  and  _12
REMARK    6  A    between atoms: _14  and  _16
REMARK    7  A    between atoms: _16  and  _17
REMARK    8  A    between atoms: _16  and  _19
REMARK    9  A    between atoms: _19  and  _20
REMARK   10  A    between atoms: _23  and  _25
REMARK   11  A    between atoms: _25  and  _26
REMARK   12  A    between atoms: _25  and  _28
REMARK   13  A    between atoms: _28  and  _29
REMARK   14  A    between atoms: _34  and  _36
REMARK   15  A    between atoms: _36  and  _37
REMARK   16  A    between atoms: _39  and  _41
REMARK   17  A    between atoms: _41  and  _42
REMARK   18  A    between atoms: _41  and  _44
REMARK   19  A    between atoms: _47  and  _49
REMARK   20  A    between atoms: _49  and  _50
REMARK   21  A    between atoms: _52  and  _54
REMARK   22  A    between atoms: _54  and  _55
REMARK   23  A    between atoms: _54  and  _57
REMARK   24  A    between atoms: _57  and  _58
REMARK   25  A    between atoms: _60  and  _62
REMARK   26  A    between atoms: _62  and  _63
REMARK   27  A    between atoms: _62  and  _65
REMARK   28  A    between atoms: _65  and  _66
REMARK   29  A    between atoms: _66  and  _67
REMARK   30  A    between atoms: _67  and  _68
REMARK   31  A    between atoms: _77  and  _79
REMARK   32  A    between atoms: _79  and  _80
REMARK   33  A    between atoms: _82  and  _84
REMARK   34  A    between atoms: _84  and  _85
REMARK   35  A    between atoms: _84  and  _87
REMARK   36  A    between atoms: _87  and  _88
REMARK   37  A    between atoms: _90  and  _92
REMARK   38  A    between atoms: _92  and  _93
REMARK   39  A    between atoms: _92  and  _95
REMARK   40  A    between atoms: _97  and  _99
REMARK   41  A    between atoms: _99  and  _100
REMARK   42  A    between atoms: _102  and  _104
REMARK   43  A    between atoms: _104  and  _105
REMARK   44  A    between atoms: _104  and  _107
REMARK   45  A    between atoms: _107  and  _108
REMARK   46  A    between atoms: _110  and  _112
REMARK   47  A    between atoms: _112  and  _113
REMARK   48  A    between atoms: _112  and  _115
REMARK   49  A    between atoms: _115  and  _116
REMARK   50  A    between atoms: _119  and  _121
REMARK   51  A    between atoms: _121  and  _122
REMARK   52  A    between atoms: _121  and  _124
REMARK   53  A    between atoms: _124  and  _125
REMARK   54  A    between atoms: _127  and  _129
REMARK   55  A    between atoms: _129  and  _130
REMARK   56  A    between atoms: _129  and  _132
REMARK   57  A    between atoms: _135  and  _137
REMARK   58  A    between atoms: _137  and  _138
REMARK   59  A    between atoms: _137  and  _140
REMARK   60  A    between atoms: _140  and  _141
REMARK   61  A    between atoms: _143  and  _145
REMARK   62  A    between atoms: _145  and  _146
REMARK   63  A    between atoms: _145  and  _148
REMARK   64  A    between atoms: _148  and  _149
REMARK   65  A    between atoms: _151  and  _153
REMARK   66  A    between atoms: _153  and  _154
REMARK   67  A    between atoms: _153  and  _156
REMARK   68  A    between atoms: _156  and  _157
REMARK   69  A    between atoms: _160  and  _162
REMARK   70  A    between atoms: _162  and  _163
REMARK   71  A    between atoms: _162  and  _165
REMARK   72  A    between atoms: _165  and  _166
REMARK   73  A    between atoms: _166  and  _167
REMARK   74  A    between atoms: _169  and  _171
REMARK   75  A    between atoms: _171  and  _172
REMARK   76  A    between atoms: _171  and  _174
REMARK   77  A    between atoms: _174  and  _175
REMARK   78  A    between atoms: _180  and  _181
REMARK   79  A    between atoms: _183  and  _185
REMARK   80  A    between atoms: _185  and  _186
REMARK   81  A    between atoms: _185  and  _188
REMARK   82  A    between atoms: _188  and  _189
REMARK   83  A    between atoms: _194  and  _195
REMARK   84  A    between atoms: _197  and  _199
REMARK   85  A    between atoms: _199  and  _200
REMARK   86  A    between atoms: _199  and  _202
REMARK   87  A    between atoms: _202  and  _203
REMARK   88  A    between atoms: _206  and  _208
REMARK   89  A    between atoms: _208  and  _209
REMARK   90  A    between atoms: _208  and  _211
REMARK   91  A    between atoms: _214  and  _216
REMARK   92  A    between atoms: _216  and  _217
REMARK   93  A    between atoms: _216  and  _219
REMARK   94  A    between atoms: _222  and  _224
REMARK   95  A    between atoms: _224  and  _225
REMARK   96  A    between atoms: _224  and  _227
REMARK   97  A    between atoms: _227  and  _228
REMARK   98  A    between atoms: _228  and  _229
REMARK   99  A    between atoms: _232  and  _234
REMARK  100  A    between atoms: _234  and  _235
REMARK  101  A    between atoms: _234  and  _237
REMARK  102  A    between atoms: _237  and  _238
REMARK  103  A    between atoms: _238  and  _239
REMARK  104  A    between atoms: _241  and  _243
REMARK  105  A    between atoms: _243  and  _244
REMARK  106  A    between atoms: _243  and  _246
REMARK  107  A    between atoms: _246  and  _247
REMARK  108  A    between atoms: _247  and  _248
REMARK  109  A    between atoms: _251  and  _253
REMARK  110  A    between atoms: _253  and  _254
REMARK  111  A    between atoms: _253  and  _256
REMARK  112  A    between atoms: _256  and  _257
REMARK  113  A    between atoms: _260  and  _262
REMARK  114  A    between atoms: _262  and  _263
REMARK  115  A    between atoms: _262  and  _265
REMARK  116  A    between atoms: _265  and  _266
REMARK  117  A    between atoms: _269  and  _271
REMARK  118  A    between atoms: _271  and  _272
REMARK  119  A    between atoms: _271  and  _274
REMARK  120  A    between atoms: _274  and  _275
REMARK  121  A    between atoms: _278  and  _280
REMARK  122  A    between atoms: _280  and  _281
REMARK  123  A    between atoms: _280  and  _283
REMARK  124  A    between atoms: _286  and  _288
REMARK  125  A    between atoms: _288  and  _289
REMARK  126  A    between atoms: _288  and  _291
REMARK  127  A    between atoms: _291  and  _292
REMARK  128  A    between atoms: _295  and  _297
REMARK  129  A    between atoms: _297  and  _298
REMARK  130  A    between atoms: _300  and  _302
REMARK  131  A    between atoms: _302  and  _303
REMARK  132  A    between atoms: _302  and  _305
REMARK  133  A    between atoms: _308  and  _309
REMARK  134  A    between atoms: _314  and  _316
REMARK  135  A    between atoms: _316  and  _317
REMARK  136  A    between atoms: _316  and  _319
REMARK  137  A    between atoms: _319  and  _320
REMARK  138  A    between atoms: _326  and  _328
REMARK  139  A    between atoms: _328  and  _329
REMARK  140  A    between atoms: _328  and  _331
REMARK  141  A    between atoms: _331  and  _332
REMARK  142  A    between atoms: _332  and  _333
REMARK  143  A    between atoms: _333  and  _334
REMARK  144  A    between atoms: _334  and  _335
REMARK  145  A    between atoms: _339  and  _341
REMARK  146  A    between atoms: _341  and  _342
REMARK  147  A    between atoms: _341  and  _344
REMARK  148  A    between atoms: _344  and  _345
REMARK  149  A    between atoms: _355  and  _357
REMARK  150  A    between atoms: _357  and  _358
REMARK  151  A    between atoms: _357  and  _360
REMARK  152  A    between atoms: _360  and  _361
REMARK  153  A    between atoms: _364  and  _366
REMARK  154  A    between atoms: _366  and  _367
REMARK  155  A    between atoms: _366  and  _369
REMARK  156  A    between atoms: _369  and  _370
REMARK  157  A    between atoms: _376  and  _378
REMARK  158  A    between atoms: _378  and  _379
REMARK  159  A    between atoms: _378  and  _381
REMARK  160  A    between atoms: _381  and  _382
REMARK  161  A    between atoms: _385  and  _387
REMARK  162  A    between atoms: _387  and  _388
REMARK  163  A    between atoms: _387  and  _390
REMARK  164  A    between atoms: _390  and  _391
REMARK  165  A    between atoms: _394  and  _396
REMARK  166  A    between atoms: _396  and  _397
REMARK  167  A    between atoms: _396  and  _399
REMARK  168  A    between atoms: _399  and  _400
REMARK  169  A    between atoms: _400  and  _401
REMARK  170  A    between atoms: _401  and  _402
REMARK  171  A    between atoms: _411  and  _413
REMARK  172  A    between atoms: _413  and  _414
REMARK  173  A    between atoms: _413  and  _416
REMARK  174  A    between atoms: _416  and  _417
REMARK  175  A    between atoms: _422  and  _424
REMARK  176  A    between atoms: _424  and  _425
REMARK  177  A    between atoms: _424  and  _427
REMARK  178  A    between atoms: _427  and  _428
REMARK  179  A    between atoms: _433  and  _435
REMARK  180  A    between atoms: _435  and  _436
REMARK  181  A    between atoms: _435  and  _438
REMARK  182  A    between atoms: _438  and  _439
REMARK  183  A    between atoms: _439  and  _440
REMARK  184  A    between atoms: _440  and  _441
REMARK  185  A    between atoms: _450  and  _452
REMARK  186  A    between atoms: _452  and  _453
REMARK  187  A    between atoms: _452  and  _455
REMARK  188  A    between atoms: _455  and  _456
REMARK  189  A    between atoms: _456  and  _457
REMARK  190  A    between atoms: _460  and  _462
REMARK  191  A    between atoms: _462  and  _463
REMARK  192  A    between atoms: _462  and  _465
REMARK  193  A    between atoms: _465  and  _466
REMARK  194  A    between atoms: _471  and  _472
REMARK  195  A    between atoms: _474  and  _476
REMARK  196  A    between atoms: _476  and  _477
REMARK  197  A    between atoms: _480  and  _482
REMARK  198  A    between atoms: _482  and  _483
REMARK  199  A    between atoms: _485  and  _487
REMARK  200  A    between atoms: _487  and  _488
REMARK  201  A    between atoms: _491  and  _493
REMARK  202  A    between atoms: _493  and  _494
REMARK  203  A    between atoms: _493  and  _496
REMARK  204  A    between atoms: _499  and  _501
REMARK  205  A    between atoms: _501  and  _502
REMARK  206  A    between atoms: _501  and  _504
REMARK  207  A    between atoms: _506  and  _508
REMARK  208  A    between atoms: _508  and  _509
REMARK  209  A    between atoms: _508  and  _511
REMARK  210  A    between atoms: _511  and  _512
REMARK  211  A    between atoms: _512  and  _513
REMARK                            x       y       z     vdW  Elec       q    Type
REMARK                         _______ _______ _______ _____ _____    ______ ____
ROOT
ATOM      1  O   HOH     1       7.801  -4.312  90.590  0.00  0.00    +0.000 OA
ENDROOT
TORSDOF 0
