REMARK  Name = ../refined-set-2016/3efs/3efs_pocket.pdb
REMARK  231 active torsions:
REMARK  status: ('A' for Active; 'I' for Inactive)
REMARK    1  A    between atoms: _1  and  _3
REMARK    2  A    between atoms: _3  and  _4
REMARK    3  A    between atoms: _6  and  _8
REMARK    4  A    between atoms: _8  and  _9
REMARK    5  A    between atoms: _8  and  _11
REMARK    6  A    between atoms: _11  and  _12
REMARK    7  A    between atoms: _12  and  _13
REMARK    8  A    between atoms: _13  and  _14
REMARK    9  A    between atoms: _23  and  _25
REMARK   10  A    between atoms: _25  and  _26
REMARK   11  A    between atoms: _28  and  _30
REMARK   12  A    between atoms: _30  and  _31
REMARK   13  A    between atoms: _30  and  _33
REMARK   14  A    between atoms: _33  and  _34
REMARK   15  A    between atoms: _34  and  _35
REMARK   16  A    between atoms: _35  and  _36
REMARK   17  A    between atoms: _45  and  _47
REMARK   18  A    between atoms: _47  and  _48
REMARK   19  A    between atoms: _47  and  _50
REMARK   20  A    between atoms: _50  and  _51
REMARK   21  A    between atoms: _54  and  _56
REMARK   22  A    between atoms: _56  and  _57
REMARK   23  A    between atoms: _59  and  _61
REMARK   24  A    between atoms: _61  and  _62
REMARK   25  A    between atoms: _61  and  _64
REMARK   26  A    between atoms: _64  and  _65
REMARK   27  A    between atoms: _65  and  _66
REMARK   28  A    between atoms: _66  and  _67
REMARK   29  A    between atoms: _76  and  _78
REMARK   30  A    between atoms: _78  and  _79
REMARK   31  A    between atoms: _78  and  _81
REMARK   32  A    between atoms: _81  and  _82
REMARK   33  A    between atoms: _82  and  _83
REMARK   34  A    between atoms: _83  and  _84
REMARK   35  A    between atoms: _84  and  _85
REMARK   36  A    between atoms: _89  and  _91
REMARK   37  A    between atoms: _91  and  _92
REMARK   38  A    between atoms: _91  and  _94
REMARK   39  A    between atoms: _94  and  _95
REMARK   40  A    between atoms: _105  and  _107
REMARK   41  A    between atoms: _107  and  _108
REMARK   42  A    between atoms: _107  and  _110
REMARK   43  A    between atoms: _110  and  _111
REMARK   44  A    between atoms: _114  and  _116
REMARK   45  A    between atoms: _116  and  _117
REMARK   46  A    between atoms: _116  and  _119
REMARK   47  A    between atoms: _119  and  _120
REMARK   48  A    between atoms: _122  and  _124
REMARK   49  A    between atoms: _124  and  _125
REMARK   50  A    between atoms: _124  and  _127
REMARK   51  A    between atoms: _127  and  _128
REMARK   52  A    between atoms: _128  and  _129
REMARK   53  A    between atoms: _134  and  _136
REMARK   54  A    between atoms: _136  and  _137
REMARK   55  A    between atoms: _139  and  _141
REMARK   56  A    between atoms: _141  and  _142
REMARK   57  A    between atoms: _141  and  _144
REMARK   58  A    between atoms: _144  and  _145
REMARK   59  A    between atoms: _148  and  _150
REMARK   60  A    between atoms: _150  and  _151
REMARK   61  A    between atoms: _150  and  _153
REMARK   62  A    between atoms: _153  and  _154
REMARK   63  A    between atoms: _159  and  _160
REMARK   64  A    between atoms: _162  and  _164
REMARK   65  A    between atoms: _164  and  _165
REMARK   66  A    between atoms: _164  and  _167
REMARK   67  A    between atoms: _167  and  _168
REMARK   68  A    between atoms: _168  and  _169
REMARK   69  A    between atoms: _169  and  _170
REMARK   70  A    between atoms: _170  and  _171
REMARK   71  A    between atoms: _175  and  _177
REMARK   72  A    between atoms: _177  and  _178
REMARK   73  A    between atoms: _177  and  _180
REMARK   74  A    between atoms: _180  and  _181
REMARK   75  A    between atoms: _192  and  _193
REMARK   76  A    between atoms: _198  and  _200
REMARK   77  A    between atoms: _200  and  _201
REMARK   78  A    between atoms: _200  and  _203
REMARK   79  A    between atoms: _203  and  _204
REMARK   80  A    between atoms: _209  and  _211
REMARK   81  A    between atoms: _211  and  _212
REMARK   82  A    between atoms: _211  and  _214
REMARK   83  A    between atoms: _214  and  _215
REMARK   84  A    between atoms: _218  and  _220
REMARK   85  A    between atoms: _220  and  _221
REMARK   86  A    between atoms: _220  and  _223
REMARK   87  A    between atoms: _226  and  _228
REMARK   88  A    between atoms: _228  and  _229
REMARK   89  A    between atoms: _228  and  _231
REMARK   90  A    between atoms: _231  and  _232
REMARK   91  A    between atoms: _237  and  _238
REMARK   92  A    between atoms: _240  and  _242
REMARK   93  A    between atoms: _242  and  _243
REMARK   94  A    between atoms: _242  and  _245
REMARK   95  A    between atoms: _245  and  _246
REMARK   96  A    between atoms: _246  and  _247
REMARK   97  A    between atoms: _247  and  _248
REMARK   98  A    between atoms: _248  and  _249
REMARK   99  A    between atoms: _253  and  _255
REMARK  100  A    between atoms: _255  and  _256
REMARK  101  A    between atoms: _255  and  _258
REMARK  102  A    between atoms: _258  and  _259
REMARK  103  A    between atoms: _259  and  _260
REMARK  104  A    between atoms: _260  and  _261
REMARK  105  A    between atoms: _261  and  _262
REMARK  106  A    between atoms: _266  and  _268
REMARK  107  A    between atoms: _268  and  _269
REMARK  108  A    between atoms: _268  and  _271
REMARK  109  A    between atoms: _274  and  _276
REMARK  110  A    between atoms: _276  and  _277
REMARK  111  A    between atoms: _276  and  _279
REMARK  112  A    between atoms: _279  and  _280
REMARK  113  A    between atoms: _282  and  _284
REMARK  114  A    between atoms: _284  and  _285
REMARK  115  A    between atoms: _287  and  _289
REMARK  116  A    between atoms: _289  and  _290
REMARK  117  A    between atoms: _289  and  _292
REMARK  118  A    between atoms: _295  and  _297
REMARK  119  A    between atoms: _297  and  _298
REMARK  120  A    between atoms: _297  and  _300
REMARK  121  A    between atoms: _300  and  _301
REMARK  122  A    between atoms: _304  and  _306
REMARK  123  A    between atoms: _306  and  _307
REMARK  124  A    between atoms: _309  and  _311
REMARK  125  A    between atoms: _311  and  _312
REMARK  126  A    between atoms: _311  and  _314
REMARK  127  A    between atoms: _314  and  _315
REMARK  128  A    between atoms: _318  and  _320
REMARK  129  A    between atoms: _320  and  _321
REMARK  130  A    between atoms: _320  and  _323
REMARK  131  A    between atoms: _323  and  _324
REMARK  132  A    between atoms: _329  and  _331
REMARK  133  A    between atoms: _331  and  _332
REMARK  134  A    between atoms: _331  and  _334
REMARK  135  A    between atoms: _337  and  _339
REMARK  136  A    between atoms: _339  and  _340
REMARK  137  A    between atoms: _339  and  _342
REMARK  138  A    between atoms: _342  and  _343
REMARK  139  A    between atoms: _343  and  _344
REMARK  140  A    between atoms: _349  and  _351
REMARK  141  A    between atoms: _351  and  _352
REMARK  142  A    between atoms: _351  and  _354
REMARK  143  A    between atoms: _354  and  _355
REMARK  144  A    between atoms: _359  and  _360
REMARK  145  A    between atoms: _365  and  _367
REMARK  146  A    between atoms: _367  and  _368
REMARK  147  A    between atoms: _367  and  _370
REMARK  148  A    between atoms: _370  and  _371
REMARK  149  A    between atoms: _371  and  _372
REMARK  150  A    between atoms: _375  and  _377
REMARK  151  A    between atoms: _377  and  _378
REMARK  152  A    between atoms: _377  and  _380
REMARK  153  A    between atoms: _380  and  _381
REMARK  154  A    between atoms: _384  and  _386
REMARK  155  A    between atoms: _386  and  _387
REMARK  156  A    between atoms: _386  and  _389
REMARK  157  A    between atoms: _389  and  _390
REMARK  158  A    between atoms: _390  and  _391
REMARK  159  A    between atoms: _391  and  _392
REMARK  160  A    between atoms: _392  and  _393
REMARK  161  A    between atoms: _397  and  _399
REMARK  162  A    between atoms: _399  and  _400
REMARK  163  A    between atoms: _399  and  _402
REMARK  164  A    between atoms: _402  and  _403
REMARK  165  A    between atoms: _406  and  _408
REMARK  166  A    between atoms: _408  and  _409
REMARK  167  A    between atoms: _408  and  _411
REMARK  168  A    between atoms: _411  and  _412
REMARK  169  A    between atoms: _412  and  _413
REMARK  170  A    between atoms: _413  and  _414
REMARK  171  A    between atoms: _423  and  _425
REMARK  172  A    between atoms: _425  and  _426
REMARK  173  A    between atoms: _429  and  _431
REMARK  174  A    between atoms: _431  and  _432
REMARK  175  A    between atoms: _431  and  _434
REMARK  176  A    between atoms: _434  and  _435
REMARK  177  A    between atoms: _438  and  _440
REMARK  178  A    between atoms: _440  and  _441
REMARK  179  A    between atoms: _440  and  _443
REMARK  180  A    between atoms: _443  and  _444
REMARK  181  A    between atoms: _447  and  _449
REMARK  182  A    between atoms: _449  and  _450
REMARK  183  A    between atoms: _449  and  _452
REMARK  184  A    between atoms: _452  and  _453
REMARK  185  A    between atoms: _456  and  _458
REMARK  186  A    between atoms: _458  and  _459
REMARK  187  A    between atoms: _458  and  _461
REMARK  188  A    between atoms: _461  and  _462
REMARK  189  A    between atoms: _467  and  _468
REMARK  190  A    between atoms: _470  and  _472
REMARK  191  A    between atoms: _472  and  _473
REMARK  192  A    between atoms: _472  and  _475
REMARK  193  A    between atoms: _475  and  _476
REMARK  194  A    between atoms: _476  and  _477
REMARK  195  A    between atoms: _477  and  _478
REMARK  196  A    between atoms: _478  and  _479
REMARK  197  A    between atoms: _483  and  _485
REMARK  198  A    between atoms: _485  and  _486
REMARK  199  A    between atoms: _485  and  _488
REMARK  200  A    between atoms: _488  and  _489
REMARK  201  A    between atoms: _492  and  _494
REMARK  202  A    between atoms: _494  and  _495
REMARK  203  A    between atoms: _497  and  _499
REMARK  204  A    between atoms: _499  and  _500
REMARK  205  A    between atoms: _499  and  _502
REMARK  206  A    between atoms: _502  and  _503
REMARK  207  A    between atoms: _503  and  _504
REMARK  208  A    between atoms: _507  and  _509
REMARK  209  A    between atoms: _509  and  _510
REMARK  210  A    between atoms: _509  and  _512
REMARK  211  A    between atoms: _512  and  _513
REMARK  212  A    between atoms: _519  and  _521
REMARK  213  A    between atoms: _521  and  _522
REMARK  214  A    between atoms: _521  and  _524
REMARK  215  A    between atoms: _524  and  _525
REMARK  216  A    between atoms: _527  and  _529
REMARK  217  A    between atoms: _529  and  _530
REMARK  218  A    between atoms: _529  and  _532
REMARK  219  A    between atoms: _532  and  _533
REMARK  220  A    between atoms: _536  and  _538
REMARK  221  A    between atoms: _538  and  _539
REMARK  222  A    between atoms: _538  and  _541
REMARK  223  A    between atoms: _541  and  _542
REMARK  224  A    between atoms: _542  and  _543
REMARK  225  A    between atoms: _543  and  _544
REMARK  226  A    between atoms: _553  and  _555
REMARK  227  A    between atoms: _555  and  _556
REMARK  228  A    between atoms: _555  and  _558
REMARK  229  A    between atoms: _558  and  _559
REMARK  230  A    between atoms: _559  and  _560
REMARK  231  A    between atoms: _560  and  _561
REMARK                            x       y       z     vdW  Elec       q    Type
REMARK                         _______ _______ _______ _____ _____    ______ ____
ROOT
ATOM      1  CA  ARG A   7     -10.686   4.739  14.048  0.00  0.00    +0.149 C 
ENDROOT
BRANCH   1   2
ATOM      2  C   ARG A   7     -11.732   4.392  15.105  0.00  0.00    +0.241 C 
ATOM      3  O   ARG A   7     -11.529   3.495  15.922  0.00  0.00    -0.273 OA
ATOM      4  N   LYS A   8     -12.848   5.113  15.082  0.00  0.00    -0.297 N 
ATOM      5  H   LYS A   8     -12.964   5.838  14.345  0.00  0.00    +0.150 HD
BRANCH   4   6
ATOM      6  CA  LYS A   8     -13.916   4.920  16.057  0.00  0.00    +0.149 C 
BRANCH   6   7
ATOM      7  C   LYS A   8     -14.634   3.587  15.867  0.00  0.00    +0.241 C 
ATOM      8  N   TRP A   9     -14.635   2.767  16.913  0.00  0.00    -0.297 N 
ATOM      9  H   TRP A   9     -14.098   3.031  17.763  0.00  0.00    +0.150 HD
ATOM     10  O   LYS A   8     -15.177   3.310  14.797  0.00  0.00    -0.273 OA
BRANCH   8  11
ATOM     11  CA  TRP A   9     -15.370   1.506  16.900  0.00  0.00    +0.153 C 
BRANCH  11  12
ATOM     12  C   TRP A   9     -16.625   1.610  17.760  0.00  0.00    +0.241 C 
ATOM     13  O   TRP A   9     -16.573   1.437  18.978  0.00  0.00    -0.273 OA
ATOM     14  N   LEU A  10     -17.751   1.897  17.115  0.00  0.00    -0.297 N 
ATOM     15  H   LEU A  10     -17.727   1.998  16.080  0.00  0.00    +0.150 HD
BRANCH  14  16
ATOM     16  CA  LEU A  10     -19.019   2.075  17.813  0.00  0.00    +0.149 C 
BRANCH  16  17
ATOM     17  C   LEU A  10     -19.341   0.885  18.713  0.00  0.00    +0.241 C 
ATOM     18  N   SER A  11     -19.400   1.137  20.017  0.00  0.00    -0.295 N 
ATOM     19  H   SER A  11     -19.274   2.114  20.350  0.00  0.00    +0.150 HD
ATOM     20  O   LEU A  10     -19.532  -0.233  18.237  0.00  0.00    -0.273 OA
BRANCH  18  21
ATOM     21  CA  SER A  11     -19.636   0.080  20.994  0.00  0.00    +0.178 C 
BRANCH  21  22
ATOM     22  C   SER A  11     -20.822   0.385  21.904  0.00  0.00    +0.243 C 
ATOM     23  O   SER A  11     -20.646   0.774  23.059  0.00  0.00    -0.273 OA
ATOM     24  N   GLN A  12     -22.029   0.199  21.380  0.00  0.00    -0.298 N 
ATOM     25  H   GLN A  12     -22.109  -0.127  20.396  0.00  0.00    +0.150 HD
BRANCH  24  26
ATOM     26  CA  GLN A  12     -23.243   0.440  22.150  0.00  0.00    +0.137 C 
BRANCH  26  27
ATOM     27  C   GLN A  12     -23.690  -0.808  22.905  0.00  0.00    +0.227 C 
ATOM     28  O   GLN A  12     -23.104  -1.881  22.758  0.00  0.00    -0.286 OA
ENDBRANCH  26  27
BRANCH  26  29
ATOM     29  CB  GLN A  12     -24.367   0.933  21.237  0.00  0.00    +0.037 C 
BRANCH  29  30
ATOM     30  CG  GLN A  12     -24.167   2.345  20.712  0.00  0.00    +0.087 C 
BRANCH  30  31
ATOM     31  CD  GLN A  12     -25.272   2.775  19.770  0.00  0.00    +0.219 C 
ATOM     32  NE2 GLN A  12     -25.658   4.044  19.850  0.00  0.00    -0.329 N 
ATOM     33 HE21 GLN A  12     -25.206   4.683  20.535  0.00  0.00    +0.145 HD
ATOM     34 HE22 GLN A  12     -26.412   4.398  19.227  0.00  0.00    +0.145 HD
ATOM     35  OE1 GLN A  12     -25.773   1.977  18.977  0.00  0.00    -0.275 OA
ENDBRANCH  30  31
ENDBRANCH  29  30
ENDBRANCH  26  29
ENDBRANCH  24  26
ENDBRANCH  21  22
BRANCH  21  36
ATOM     36  CB  SER A  11     -18.380  -0.156  21.836  0.00  0.00    +0.166 C 
BRANCH  36  37
ATOM     37  OG  SER A  11     -17.281  -0.524  21.021  0.00  0.00    -0.380 OA
ATOM     38  H   SER A  11     -17.096   0.200  20.372  0.00  0.00    +0.211 HD
ENDBRANCH  36  37
ENDBRANCH  21  36
ENDBRANCH  18  21
ENDBRANCH  16  17
BRANCH  16  39
ATOM     39  CB  LEU A  10     -20.147   2.305  16.806  0.00  0.00    +0.029 C 
BRANCH  39  40
ATOM     40  CG  LEU A  10     -19.945   3.524  15.902  0.00  0.00    +0.002 C 
ATOM     41  CD2 LEU A  10     -20.070   4.811  16.705  0.00  0.00    +0.000 C 
ATOM     42  CD1 LEU A  10     -20.920   3.513  14.736  0.00  0.00    +0.000 C 
ENDBRANCH  39  40
ENDBRANCH  16  39
ENDBRANCH  14  16
ENDBRANCH  11  12
BRANCH  11  43
ATOM     43  CB  TRP A   9     -14.491   0.355  17.392  0.00  0.00    +0.057 C 
BRANCH  43  44
ATOM     44  CG  TRP A   9     -15.203  -0.963  17.423  0.00  0.00    -0.002 A 
ATOM     45  CD1 TRP A   9     -15.854  -1.518  18.485  0.00  0.00    +0.068 A 
ATOM     46  NE1 TRP A   9     -16.390  -2.733  18.132  0.00  0.00    -0.352 N 
ATOM     47  HE1 TRP A   9     -16.934  -3.360  18.759  0.00  0.00    +0.166 HD
ATOM     48  CE2 TRP A   9     -16.091  -2.984  16.819  0.00  0.00    +0.056 A 
ATOM     49  CZ2 TRP A   9     -16.412  -4.078  16.017  0.00  0.00    +0.017 A 
ATOM     50  CH2 TRP A   9     -15.975  -4.060  14.721  0.00  0.00    +0.001 A 
ATOM     51  CZ3 TRP A   9     -15.231  -2.987  14.214  0.00  0.00    +0.000 A 
ATOM     52  CE3 TRP A   9     -14.910  -1.900  15.009  0.00  0.00    +0.001 A 
ATOM     53  CD2 TRP A   9     -15.344  -1.889  16.338  0.00  0.00    +0.013 A 
ENDBRANCH  43  44
ENDBRANCH  11  43
ENDBRANCH   8  11
ENDBRANCH   6   7
BRANCH   6  54
ATOM     54  CB  LYS A   8     -14.926   6.065  15.966  0.00  0.00    +0.029 C 
BRANCH  54  55
ATOM     55  CG  LYS A   8     -16.118   5.926  16.901  0.00  0.00    +0.000 C 
BRANCH  55  56
ATOM     56  CD  LYS A   8     -15.720   6.181  18.343  0.00  0.00    -0.024 C 
BRANCH  56  57
ATOM     57  CE  LYS A   8     -16.935   6.208  19.256  0.00  0.00    -0.086 C 
BRANCH  57  58
ATOM     58  NZ  LYS A   8     -16.560   6.512  20.664  0.00  0.00    +0.380 N 
ATOM     59  HZ1 LYS A   8     -17.416   6.521  21.255  0.00  0.00    -0.089 HD
ATOM     60  HZ2 LYS A   8     -15.905   5.783  21.012  0.00  0.00    -0.089 HD
ATOM     61  HZ3 LYS A   8     -16.098   7.443  20.705  0.00  0.00    -0.089 HD
ENDBRANCH  57  58
ENDBRANCH  56  57
ENDBRANCH  55  56
ENDBRANCH  54  55
ENDBRANCH   6  54
ENDBRANCH   4   6
ENDBRANCH   1   2
BRANCH   1  64
ATOM     62  C   GLY A   6      -8.700   5.209  15.372  0.00  0.00    +0.243 C 
ATOM     63  O   GLY A   6      -9.181   6.258  15.802  0.00  0.00    -0.273 OA
ATOM     64  N   ARG A   7      -9.338   4.422  14.512  0.00  0.00    -0.297 N 
ATOM     65  H   ARG A   7      -8.868   3.563  14.162  0.00  0.00    +0.150 HD
BRANCH  62  66
ATOM     66  CA  GLY A   6      -7.321   4.759  15.817  0.00  0.00    +0.176 C 
BRANCH  66  68
ATOM     67  C   LEU A   5      -6.337   3.815  13.802  0.00  0.00    +0.241 C 
ATOM     68  N   GLY A   6      -6.767   3.658  15.050  0.00  0.00    -0.295 N 
ATOM     69  H   GLY A   6      -6.705   2.718  15.490  0.00  0.00    +0.150 HD
ATOM     70  O   LEU A   5      -6.430   4.879  13.189  0.00  0.00    -0.273 OA
BRANCH  67  71
ATOM     71  CA  LEU A   5      -5.712   2.584  13.148  0.00  0.00    +0.149 C 
BRANCH  71  74
ATOM     72  C   ARG A   4      -5.890   0.202  13.587  0.00  0.00    +0.241 C 
ATOM     73  O   ARG A   4      -4.670   0.055  13.505  0.00  0.00    -0.273 OA
ATOM     74  N   LEU A   5      -6.485   1.378  13.418  0.00  0.00    -0.297 N 
ATOM     75  H   LEU A   5      -7.521   1.439  13.479  0.00  0.00    +0.150 HD
BRANCH  72  76
ATOM     76  CA  ARG A   4      -6.796  -0.989  13.900  0.00  0.00    +0.149 C 
BRANCH  76  79
ATOM     77  C   GLY A   3      -8.564  -0.119  15.334  0.00  0.00    +0.243 C 
ATOM     78  O   GLY A   3      -7.769   0.147  16.234  0.00  0.00    -0.273 OA
ATOM     79  N   ARG A   4      -8.187  -0.631  14.166  0.00  0.00    -0.297 N 
ATOM     80  H   ARG A   4      -8.900  -0.780  13.424  0.00  0.00    +0.150 HD
BRANCH  77  81
ATOM     81  CA  GLY A   3     -10.049   0.139  15.511  0.00  0.00    +0.176 C 
BRANCH  81  84
ATOM     82  C   ARG A   2     -10.603   0.810  17.782  0.00  0.00    +0.241 C 
ATOM     83  O   ARG A   2     -10.765  -0.352  18.153  0.00  0.00    -0.273 OA
ATOM     84  N   GLY A   3     -10.287   1.139  16.534  0.00  0.00    -0.295 N 
ATOM     85  H   GLY A   3     -10.208   2.145  16.283  0.00  0.00    +0.150 HD
BRANCH  82  86
ATOM     86  CA  ARG A   2     -10.762   1.975  18.754  0.00  0.00    +0.149 C 
BRANCH  86  88
ATOM     87  C   GLY A   1     -12.782   2.405  20.034  0.00  0.00    +0.240 C 
ATOM     88  N   ARG A   2     -11.686   1.679  19.841  0.00  0.00    -0.297 N 
ATOM     89  H   ARG A   2     -11.484   0.883  20.479  0.00  0.00    +0.150 HD
ATOM     90  O   GLY A   1     -13.139   3.295  19.262  0.00  0.00    -0.274 OA
BRANCH  87  91
ATOM     91  CA  GLY A   1     -13.595   2.076  21.270  0.00  0.00    +0.169 C 
BRANCH  91  92
ATOM     92  N   GLY A   1     -13.896   3.263  22.051  0.00  0.00    -0.236 NA
ATOM     93  H   GLY A   1     -14.886   3.569  22.142  0.00  0.00    +0.142 HD
ENDBRANCH  91  92
ENDBRANCH  87  91
ENDBRANCH  86  88
BRANCH  86  94
ATOM     94  CB  ARG A   2      -9.397   2.389  19.313  0.00  0.00    +0.033 C 
BRANCH  94  95
ATOM     95  CG  ARG A   2      -9.393   3.744  20.010  0.00  0.00    +0.045 C 
BRANCH  95  96
ATOM     96  CD  ARG A   2      -9.598   4.873  19.014  0.00  0.00    +0.174 C 
BRANCH  96  97
ATOM     97  NE  ARG A   2      -9.543   6.189  19.644  0.00  0.00    -0.265 N 
ATOM     98  CZ  ARG A   2     -10.613   6.889  20.008  0.00  0.00    +0.342 C 
ATOM     99  NH2 ARG A   2     -10.467   8.081  20.573  0.00  0.00    -0.292 N 
ATOM    100 HH21 ARG A   2     -11.305   8.628  20.857  0.00  0.00    +0.255 HD
ATOM    101 HH22 ARG A   2      -9.515   8.468  20.731  0.00  0.00    +0.255 HD
ATOM    102  NH1 ARG A   2     -11.829   6.400  19.807  0.00  0.00    -0.292 N 
ATOM    103 HH11 ARG A   2     -12.664   6.950  20.093  0.00  0.00    +0.255 HD
ATOM    104 HH12 ARG A   2     -11.947   5.467  19.364  0.00  0.00    +0.255 HD
ATOM    105  HE  ARG A   2      -8.606   6.606  19.819  0.00  0.00    +0.259 HD
ENDBRANCH  96  97
ENDBRANCH  95  96
ENDBRANCH  94  95
ENDBRANCH  86  94
ENDBRANCH  82  86
ENDBRANCH  81  84
ENDBRANCH  77  81
ENDBRANCH  76  79
BRANCH  76 106
ATOM    106  CB  ARG A   4      -6.713  -2.037  12.787  0.00  0.00    +0.033 C 
BRANCH 106 107
ATOM    107  CG  ARG A   4      -6.555  -3.454  13.312  0.00  0.00    +0.045 C 
BRANCH 107 108
ATOM    108  CD  ARG A   4      -6.676  -4.496  12.215  0.00  0.00    +0.174 C 
BRANCH 108 109
ATOM    109  NE  ARG A   4      -8.055  -4.941  12.039  0.00  0.00    -0.265 N 
ATOM    110  HE  ARG A   4      -8.481  -5.515  12.795  0.00  0.00    +0.259 HD
ATOM    111  CZ  ARG A   4      -8.801  -4.661  10.977  0.00  0.00    +0.342 C 
ATOM    112  NH2 ARG A   4     -10.047  -5.108  10.904  0.00  0.00    -0.292 N 
ATOM    113 HH21 ARG A   4     -10.441  -5.679  11.679  0.00  0.00    +0.255 HD
ATOM    114 HH22 ARG A   4     -10.630  -4.888  10.072  0.00  0.00    +0.255 HD
ATOM    115  NH1 ARG A   4      -8.299  -3.941   9.983  0.00  0.00    -0.292 N 
ATOM    116 HH11 ARG A   4      -7.320  -3.595  10.035  0.00  0.00    +0.255 HD
ATOM    117 HH12 ARG A   4      -8.885  -3.723   9.152  0.00  0.00    +0.255 HD
ENDBRANCH 108 109
ENDBRANCH 107 108
ENDBRANCH 106 107
ENDBRANCH  76 106
ENDBRANCH  72  76
ENDBRANCH  71  74
BRANCH  71 118
ATOM    118  CB  LEU A   5      -5.559   2.802  11.642  0.00  0.00    +0.029 C 
BRANCH 118 119
ATOM    119  CG  LEU A   5      -4.427   3.742  11.221  0.00  0.00    +0.002 C 
ATOM    120  CD2 LEU A   5      -3.073   3.130  11.554  0.00  0.00    +0.000 C 
ATOM    121  CD1 LEU A   5      -4.521   4.071   9.741  0.00  0.00    +0.000 C 
ENDBRANCH 118 119
ENDBRANCH  71 118
ENDBRANCH  67  71
ENDBRANCH  66  68
ENDBRANCH  62  66
ENDBRANCH   1  64
BRANCH   1 122
ATOM    122  CB  ARG A   7     -11.001   4.028  12.726  0.00  0.00    +0.033 C 
BRANCH 122 123
ATOM    123  CG  ARG A   7     -10.688   2.538  12.710  0.00  0.00    +0.045 C 
BRANCH 123 124
ATOM    124  CD  ARG A   7      -9.209   2.292  12.469  0.00  0.00    +0.174 C 
BRANCH 124 125
ATOM    125  NE  ARG A   7      -8.793   2.730  11.140  0.00  0.00    -0.265 N 
ATOM    126  HE  ARG A   7      -8.793   3.751  10.942  0.00  0.00    +0.259 HD
ATOM    127  CZ  ARG A   7      -8.415   1.907  10.168  0.00  0.00    +0.342 C 
ATOM    128  NH2 ARG A   7      -8.386   0.598  10.380  0.00  0.00    -0.292 N 
ATOM    129 HH21 ARG A   7      -8.659   0.215  11.308  0.00  0.00    +0.255 HD
ATOM    130 HH22 ARG A   7      -8.090  -0.046   9.619  0.00  0.00    +0.255 HD
ATOM    131  NH1 ARG A   7      -8.055   2.391   8.988  0.00  0.00    -0.292 N 
ATOM    132 HH11 ARG A   7      -8.068   3.417   8.821  0.00  0.00    +0.255 HD
ATOM    133 HH12 ARG A   7      -7.760   1.744   8.229  0.00  0.00    +0.255 HD
ENDBRANCH 124 125
ENDBRANCH 123 124
ENDBRANCH 122 123
ENDBRANCH   1 122
TORSDOF 52
REMARK  Name = ../refined-set-2016/3efs/3efs_pocket.pdb
REMARK  231 active torsions:
REMARK  status: ('A' for Active; 'I' for Inactive)
REMARK    1  A    between atoms: _1  and  _3
REMARK    2  A    between atoms: _3  and  _4
REMARK    3  A    between atoms: _6  and  _8
REMARK    4  A    between atoms: _8  and  _9
REMARK    5  A    between atoms: _8  and  _11
REMARK    6  A    between atoms: _11  and  _12
REMARK    7  A    between atoms: _12  and  _13
REMARK    8  A    between atoms: _13  and  _14
REMARK    9  A    between atoms: _23  and  _25
REMARK   10  A    between atoms: _25  and  _26
REMARK   11  A    between atoms: _28  and  _30
REMARK   12  A    between atoms: _30  and  _31
REMARK   13  A    between atoms: _30  and  _33
REMARK   14  A    between atoms: _33  and  _34
REMARK   15  A    between atoms: _34  and  _35
REMARK   16  A    between atoms: _35  and  _36
REMARK   17  A    between atoms: _45  and  _47
REMARK   18  A    between atoms: _47  and  _48
REMARK   19  A    between atoms: _47  and  _50
REMARK   20  A    between atoms: _50  and  _51
REMARK   21  A    between atoms: _54  and  _56
REMARK   22  A    between atoms: _56  and  _57
REMARK   23  A    between atoms: _59  and  _61
REMARK   24  A    between atoms: _61  and  _62
REMARK   25  A    between atoms: _61  and  _64
REMARK   26  A    between atoms: _64  and  _65
REMARK   27  A    between atoms: _65  and  _66
REMARK   28  A    between atoms: _66  and  _67
REMARK   29  A    between atoms: _76  and  _78
REMARK   30  A    between atoms: _78  and  _79
REMARK   31  A    between atoms: _78  and  _81
REMARK   32  A    between atoms: _81  and  _82
REMARK   33  A    between atoms: _82  and  _83
REMARK   34  A    between atoms: _83  and  _84
REMARK   35  A    between atoms: _84  and  _85
REMARK   36  A    between atoms: _89  and  _91
REMARK   37  A    between atoms: _91  and  _92
REMARK   38  A    between atoms: _91  and  _94
REMARK   39  A    between atoms: _94  and  _95
REMARK   40  A    between atoms: _105  and  _107
REMARK   41  A    between atoms: _107  and  _108
REMARK   42  A    between atoms: _107  and  _110
REMARK   43  A    between atoms: _110  and  _111
REMARK   44  A    between atoms: _114  and  _116
REMARK   45  A    between atoms: _116  and  _117
REMARK   46  A    between atoms: _116  and  _119
REMARK   47  A    between atoms: _119  and  _120
REMARK   48  A    between atoms: _122  and  _124
REMARK   49  A    between atoms: _124  and  _125
REMARK   50  A    between atoms: _124  and  _127
REMARK   51  A    between atoms: _127  and  _128
REMARK   52  A    between atoms: _128  and  _129
REMARK   53  A    between atoms: _134  and  _136
REMARK   54  A    between atoms: _136  and  _137
REMARK   55  A    between atoms: _139  and  _141
REMARK   56  A    between atoms: _141  and  _142
REMARK   57  A    between atoms: _141  and  _144
REMARK   58  A    between atoms: _144  and  _145
REMARK   59  A    between atoms: _148  and  _150
REMARK   60  A    between atoms: _150  and  _151
REMARK   61  A    between atoms: _150  and  _153
REMARK   62  A    between atoms: _153  and  _154
REMARK   63  A    between atoms: _159  and  _160
REMARK   64  A    between atoms: _162  and  _164
REMARK   65  A    between atoms: _164  and  _165
REMARK   66  A    between atoms: _164  and  _167
REMARK   67  A    between atoms: _167  and  _168
REMARK   68  A    between atoms: _168  and  _169
REMARK   69  A    between atoms: _169  and  _170
REMARK   70  A    between atoms: _170  and  _171
REMARK   71  A    between atoms: _175  and  _177
REMARK   72  A    between atoms: _177  and  _178
REMARK   73  A    between atoms: _177  and  _180
REMARK   74  A    between atoms: _180  and  _181
REMARK   75  A    between atoms: _192  and  _193
REMARK   76  A    between atoms: _198  and  _200
REMARK   77  A    between atoms: _200  and  _201
REMARK   78  A    between atoms: _200  and  _203
REMARK   79  A    between atoms: _203  and  _204
REMARK   80  A    between atoms: _209  and  _211
REMARK   81  A    between atoms: _211  and  _212
REMARK   82  A    between atoms: _211  and  _214
REMARK   83  A    between atoms: _214  and  _215
REMARK   84  A    between atoms: _218  and  _220
REMARK   85  A    between atoms: _220  and  _221
REMARK   86  A    between atoms: _220  and  _223
REMARK   87  A    between atoms: _226  and  _228
REMARK   88  A    between atoms: _228  and  _229
REMARK   89  A    between atoms: _228  and  _231
REMARK   90  A    between atoms: _231  and  _232
REMARK   91  A    between atoms: _237  and  _238
REMARK   92  A    between atoms: _240  and  _242
REMARK   93  A    between atoms: _242  and  _243
REMARK   94  A    between atoms: _242  and  _245
REMARK   95  A    between atoms: _245  and  _246
REMARK   96  A    between atoms: _246  and  _247
REMARK   97  A    between atoms: _247  and  _248
REMARK   98  A    between atoms: _248  and  _249
REMARK   99  A    between atoms: _253  and  _255
REMARK  100  A    between atoms: _255  and  _256
REMARK  101  A    between atoms: _255  and  _258
REMARK  102  A    between atoms: _258  and  _259
REMARK  103  A    between atoms: _259  and  _260
REMARK  104  A    between atoms: _260  and  _261
REMARK  105  A    between atoms: _261  and  _262
REMARK  106  A    between atoms: _266  and  _268
REMARK  107  A    between atoms: _268  and  _269
REMARK  108  A    between atoms: _268  and  _271
REMARK  109  A    between atoms: _274  and  _276
REMARK  110  A    between atoms: _276  and  _277
REMARK  111  A    between atoms: _276  and  _279
REMARK  112  A    between atoms: _279  and  _280
REMARK  113  A    between atoms: _282  and  _284
REMARK  114  A    between atoms: _284  and  _285
REMARK  115  A    between atoms: _287  and  _289
REMARK  116  A    between atoms: _289  and  _290
REMARK  117  A    between atoms: _289  and  _292
REMARK  118  A    between atoms: _295  and  _297
REMARK  119  A    between atoms: _297  and  _298
REMARK  120  A    between atoms: _297  and  _300
REMARK  121  A    between atoms: _300  and  _301
REMARK  122  A    between atoms: _304  and  _306
REMARK  123  A    between atoms: _306  and  _307
REMARK  124  A    between atoms: _309  and  _311
REMARK  125  A    between atoms: _311  and  _312
REMARK  126  A    between atoms: _311  and  _314
REMARK  127  A    between atoms: _314  and  _315
REMARK  128  A    between atoms: _318  and  _320
REMARK  129  A    between atoms: _320  and  _321
REMARK  130  A    between atoms: _320  and  _323
REMARK  131  A    between atoms: _323  and  _324
REMARK  132  A    between atoms: _329  and  _331
REMARK  133  A    between atoms: _331  and  _332
REMARK  134  A    between atoms: _331  and  _334
REMARK  135  A    between atoms: _337  and  _339
REMARK  136  A    between atoms: _339  and  _340
REMARK  137  A    between atoms: _339  and  _342
REMARK  138  A    between atoms: _342  and  _343
REMARK  139  A    between atoms: _343  and  _344
REMARK  140  A    between atoms: _349  and  _351
REMARK  141  A    between atoms: _351  and  _352
REMARK  142  A    between atoms: _351  and  _354
REMARK  143  A    between atoms: _354  and  _355
REMARK  144  A    between atoms: _359  and  _360
REMARK  145  A    between atoms: _365  and  _367
REMARK  146  A    between atoms: _367  and  _368
REMARK  147  A    between atoms: _367  and  _370
REMARK  148  A    between atoms: _370  and  _371
REMARK  149  A    between atoms: _371  and  _372
REMARK  150  A    between atoms: _375  and  _377
REMARK  151  A    between atoms: _377  and  _378
REMARK  152  A    between atoms: _377  and  _380
REMARK  153  A    between atoms: _380  and  _381
REMARK  154  A    between atoms: _384  and  _386
REMARK  155  A    between atoms: _386  and  _387
REMARK  156  A    between atoms: _386  and  _389
REMARK  157  A    between atoms: _389  and  _390
REMARK  158  A    between atoms: _390  and  _391
REMARK  159  A    between atoms: _391  and  _392
REMARK  160  A    between atoms: _392  and  _393
REMARK  161  A    between atoms: _397  and  _399
REMARK  162  A    between atoms: _399  and  _400
REMARK  163  A    between atoms: _399  and  _402
REMARK  164  A    between atoms: _402  and  _403
REMARK  165  A    between atoms: _406  and  _408
REMARK  166  A    between atoms: _408  and  _409
REMARK  167  A    between atoms: _408  and  _411
REMARK  168  A    between atoms: _411  and  _412
REMARK  169  A    between atoms: _412  and  _413
REMARK  170  A    between atoms: _413  and  _414
REMARK  171  A    between atoms: _423  and  _425
REMARK  172  A    between atoms: _425  and  _426
REMARK  173  A    between atoms: _429  and  _431
REMARK  174  A    between atoms: _431  and  _432
REMARK  175  A    between atoms: _431  and  _434
REMARK  176  A    between atoms: _434  and  _435
REMARK  177  A    between atoms: _438  and  _440
REMARK  178  A    between atoms: _440  and  _441
REMARK  179  A    between atoms: _440  and  _443
REMARK  180  A    between atoms: _443  and  _444
REMARK  181  A    between atoms: _447  and  _449
REMARK  182  A    between atoms: _449  and  _450
REMARK  183  A    between atoms: _449  and  _452
REMARK  184  A    between atoms: _452  and  _453
REMARK  185  A    between atoms: _456  and  _458
REMARK  186  A    between atoms: _458  and  _459
REMARK  187  A    between atoms: _458  and  _461
REMARK  188  A    between atoms: _461  and  _462
REMARK  189  A    between atoms: _467  and  _468
REMARK  190  A    between atoms: _470  and  _472
REMARK  191  A    between atoms: _472  and  _473
REMARK  192  A    between atoms: _472  and  _475
REMARK  193  A    between atoms: _475  and  _476
REMARK  194  A    between atoms: _476  and  _477
REMARK  195  A    between atoms: _477  and  _478
REMARK  196  A    between atoms: _478  and  _479
REMARK  197  A    between atoms: _483  and  _485
REMARK  198  A    between atoms: _485  and  _486
REMARK  199  A    between atoms: _485  and  _488
REMARK  200  A    between atoms: _488  and  _489
REMARK  201  A    between atoms: _492  and  _494
REMARK  202  A    between atoms: _494  and  _495
REMARK  203  A    between atoms: _497  and  _499
REMARK  204  A    between atoms: _499  and  _500
REMARK  205  A    between atoms: _499  and  _502
REMARK  206  A    between atoms: _502  and  _503
REMARK  207  A    between atoms: _503  and  _504
REMARK  208  A    between atoms: _507  and  _509
REMARK  209  A    between atoms: _509  and  _510
REMARK  210  A    between atoms: _509  and  _512
REMARK  211  A    between atoms: _512  and  _513
REMARK  212  A    between atoms: _519  and  _521
REMARK  213  A    between atoms: _521  and  _522
REMARK  214  A    between atoms: _521  and  _524
REMARK  215  A    between atoms: _524  and  _525
REMARK  216  A    between atoms: _527  and  _529
REMARK  217  A    between atoms: _529  and  _530
REMARK  218  A    between atoms: _529  and  _532
REMARK  219  A    between atoms: _532  and  _533
REMARK  220  A    between atoms: _536  and  _538
REMARK  221  A    between atoms: _538  and  _539
REMARK  222  A    between atoms: _538  and  _541
REMARK  223  A    between atoms: _541  and  _542
REMARK  224  A    between atoms: _542  and  _543
REMARK  225  A    between atoms: _543  and  _544
REMARK  226  A    between atoms: _553  and  _555
REMARK  227  A    between atoms: _555  and  _556
REMARK  228  A    between atoms: _555  and  _558
REMARK  229  A    between atoms: _558  and  _559
REMARK  230  A    between atoms: _559  and  _560
REMARK  231  A    between atoms: _560  and  _561
REMARK                            x       y       z     vdW  Elec       q    Type
REMARK                         _______ _______ _______ _____ _____    ______ ____
ROOT
ATOM      1  C   LEU A   2     -18.290  -7.367  22.551  0.00  0.00    +0.241 C 
ATOM      2  N   TYR A   3     -17.680  -6.860  23.617  0.00  0.00    -0.298 N 
ATOM      3  H   TYR A   3     -18.146  -6.919  24.545  0.00  0.00    +0.150 HD
ATOM      4  O   LEU A   2     -17.787  -7.360  21.427  0.00  0.00    -0.273 OA
ENDROOT
BRANCH   1   5
ATOM      5  CA  LEU A   2     -19.673  -7.962  22.785  0.00  0.00    +0.149 C 
BRANCH   5   8
ATOM      6  C   GLY A   1     -21.643  -6.547  22.645  0.00  0.00    +0.240 C 
ATOM      7  O   GLY A   1     -21.784  -6.540  23.868  0.00  0.00    -0.274 OA
ATOM      8  N   LEU A   2     -20.668  -7.211  22.035  0.00  0.00    -0.297 N 
ATOM      9  H   LEU A   2     -20.614  -7.194  20.997  0.00  0.00    +0.150 HD
BRANCH   6  10
ATOM     10  CA  GLY A   1     -22.592  -5.782  21.743  0.00  0.00    +0.169 C 
BRANCH  10  11
ATOM     11  N   GLY A   1     -23.744  -5.261  22.454  0.00  0.00    -0.236 NA
ATOM     12  H   GLY A   1     -23.686  -4.319  22.891  0.00  0.00    +0.142 HD
ENDBRANCH  10  11
ENDBRANCH   6  10
ENDBRANCH   5   8
BRANCH   5  13
ATOM     13  CB  LEU A   2     -19.698  -9.436  22.376  0.00  0.00    +0.029 C 
BRANCH  13  14
ATOM     14  CG  LEU A   2     -19.086 -10.430  23.362  0.00  0.00    +0.002 C 
ATOM     15  CD2 LEU A   2     -19.664 -10.220  24.749  0.00  0.00    +0.000 C 
ATOM     16  CD1 LEU A   2     -19.320 -11.857  22.891  0.00  0.00    +0.000 C 
ENDBRANCH  13  14
ENDBRANCH   5  13
ENDBRANCH   1   5
BRANCH   2  17
ATOM     17  CA  TYR A   3     -16.374  -6.223  23.516  0.00  0.00    +0.141 C 
BRANCH  17  18
ATOM     18  C   TYR A   3     -15.436  -6.751  24.589  0.00  0.00    +0.227 C 
ATOM     19  O   TYR A   3     -15.660  -6.541  25.782  0.00  0.00    -0.286 OA
ENDBRANCH  17  18
BRANCH  17  20
ATOM     20  CB  TYR A   3     -16.515  -4.706  23.643  0.00  0.00    +0.054 C 
BRANCH  20  21
ATOM     21  CG  TYR A   3     -17.726  -4.158  22.927  0.00  0.00    -0.020 A 
ATOM     22  CD2 TYR A   3     -18.894  -3.864  23.623  0.00  0.00    -0.001 A 
ATOM     23  CE2 TYR A   3     -20.007  -3.369  22.974  0.00  0.00    +0.036 A 
ATOM     24  CZ  TYR A   3     -19.966  -3.167  21.608  0.00  0.00    +0.134 A 
ATOM     25  CE1 TYR A   3     -18.820  -3.454  20.893  0.00  0.00    +0.036 A 
ATOM     26  CD1 TYR A   3     -17.710  -3.950  21.552  0.00  0.00    -0.001 A 
BRANCH  24  27
ATOM     27  OH  TYR A   3     -21.073  -2.673  20.958  0.00  0.00    -0.506 OA
ATOM     28  HH  TYR A   3     -21.800  -2.524  21.613  0.00  0.00    +0.292 HD
ENDBRANCH  24  27
ENDBRANCH  20  21
ENDBRANCH  17  20
ENDBRANCH   2  17
TORSDOF 11
REMARK  Name = ../refined-set-2016/3efs/3efs_pocket.pdb
REMARK  231 active torsions:
REMARK  status: ('A' for Active; 'I' for Inactive)
REMARK    1  A    between atoms: _1  and  _3
REMARK    2  A    between atoms: _3  and  _4
REMARK    3  A    between atoms: _6  and  _8
REMARK    4  A    between atoms: _8  and  _9
REMARK    5  A    between atoms: _8  and  _11
REMARK    6  A    between atoms: _11  and  _12
REMARK    7  A    between atoms: _12  and  _13
REMARK    8  A    between atoms: _13  and  _14
REMARK    9  A    between atoms: _23  and  _25
REMARK   10  A    between atoms: _25  and  _26
REMARK   11  A    between atoms: _28  and  _30
REMARK   12  A    between atoms: _30  and  _31
REMARK   13  A    between atoms: _30  and  _33
REMARK   14  A    between atoms: _33  and  _34
REMARK   15  A    between atoms: _34  and  _35
REMARK   16  A    between atoms: _35  and  _36
REMARK   17  A    between atoms: _45  and  _47
REMARK   18  A    between atoms: _47  and  _48
REMARK   19  A    between atoms: _47  and  _50
REMARK   20  A    between atoms: _50  and  _51
REMARK   21  A    between atoms: _54  and  _56
REMARK   22  A    between atoms: _56  and  _57
REMARK   23  A    between atoms: _59  and  _61
REMARK   24  A    between atoms: _61  and  _62
REMARK   25  A    between atoms: _61  and  _64
REMARK   26  A    between atoms: _64  and  _65
REMARK   27  A    between atoms: _65  and  _66
REMARK   28  A    between atoms: _66  and  _67
REMARK   29  A    between atoms: _76  and  _78
REMARK   30  A    between atoms: _78  and  _79
REMARK   31  A    between atoms: _78  and  _81
REMARK   32  A    between atoms: _81  and  _82
REMARK   33  A    between atoms: _82  and  _83
REMARK   34  A    between atoms: _83  and  _84
REMARK   35  A    between atoms: _84  and  _85
REMARK   36  A    between atoms: _89  and  _91
REMARK   37  A    between atoms: _91  and  _92
REMARK   38  A    between atoms: _91  and  _94
REMARK   39  A    between atoms: _94  and  _95
REMARK   40  A    between atoms: _105  and  _107
REMARK   41  A    between atoms: _107  and  _108
REMARK   42  A    between atoms: _107  and  _110
REMARK   43  A    between atoms: _110  and  _111
REMARK   44  A    between atoms: _114  and  _116
REMARK   45  A    between atoms: _116  and  _117
REMARK   46  A    between atoms: _116  and  _119
REMARK   47  A    between atoms: _119  and  _120
REMARK   48  A    between atoms: _122  and  _124
REMARK   49  A    between atoms: _124  and  _125
REMARK   50  A    between atoms: _124  and  _127
REMARK   51  A    between atoms: _127  and  _128
REMARK   52  A    between atoms: _128  and  _129
REMARK   53  A    between atoms: _134  and  _136
REMARK   54  A    between atoms: _136  and  _137
REMARK   55  A    between atoms: _139  and  _141
REMARK   56  A    between atoms: _141  and  _142
REMARK   57  A    between atoms: _141  and  _144
REMARK   58  A    between atoms: _144  and  _145
REMARK   59  A    between atoms: _148  and  _150
REMARK   60  A    between atoms: _150  and  _151
REMARK   61  A    between atoms: _150  and  _153
REMARK   62  A    between atoms: _153  and  _154
REMARK   63  A    between atoms: _159  and  _160
REMARK   64  A    between atoms: _162  and  _164
REMARK   65  A    between atoms: _164  and  _165
REMARK   66  A    between atoms: _164  and  _167
REMARK   67  A    between atoms: _167  and  _168
REMARK   68  A    between atoms: _168  and  _169
REMARK   69  A    between atoms: _169  and  _170
REMARK   70  A    between atoms: _170  and  _171
REMARK   71  A    between atoms: _175  and  _177
REMARK   72  A    between atoms: _177  and  _178
REMARK   73  A    between atoms: _177  and  _180
REMARK   74  A    between atoms: _180  and  _181
REMARK   75  A    between atoms: _192  and  _193
REMARK   76  A    between atoms: _198  and  _200
REMARK   77  A    between atoms: _200  and  _201
REMARK   78  A    between atoms: _200  and  _203
REMARK   79  A    between atoms: _203  and  _204
REMARK   80  A    between atoms: _209  and  _211
REMARK   81  A    between atoms: _211  and  _212
REMARK   82  A    between atoms: _211  and  _214
REMARK   83  A    between atoms: _214  and  _215
REMARK   84  A    between atoms: _218  and  _220
REMARK   85  A    between atoms: _220  and  _221
REMARK   86  A    between atoms: _220  and  _223
REMARK   87  A    between atoms: _226  and  _228
REMARK   88  A    between atoms: _228  and  _229
REMARK   89  A    between atoms: _228  and  _231
REMARK   90  A    between atoms: _231  and  _232
REMARK   91  A    between atoms: _237  and  _238
REMARK   92  A    between atoms: _240  and  _242
REMARK   93  A    between atoms: _242  and  _243
REMARK   94  A    between atoms: _242  and  _245
REMARK   95  A    between atoms: _245  and  _246
REMARK   96  A    between atoms: _246  and  _247
REMARK   97  A    between atoms: _247  and  _248
REMARK   98  A    between atoms: _248  and  _249
REMARK   99  A    between atoms: _253  and  _255
REMARK  100  A    between atoms: _255  and  _256
REMARK  101  A    between atoms: _255  and  _258
REMARK  102  A    between atoms: _258  and  _259
REMARK  103  A    between atoms: _259  and  _260
REMARK  104  A    between atoms: _260  and  _261
REMARK  105  A    between atoms: _261  and  _262
REMARK  106  A    between atoms: _266  and  _268
REMARK  107  A    between atoms: _268  and  _269
REMARK  108  A    between atoms: _268  and  _271
REMARK  109  A    between atoms: _274  and  _276
REMARK  110  A    between atoms: _276  and  _277
REMARK  111  A    between atoms: _276  and  _279
REMARK  112  A    between atoms: _279  and  _280
REMARK  113  A    between atoms: _282  and  _284
REMARK  114  A    between atoms: _284  and  _285
REMARK  115  A    between atoms: _287  and  _289
REMARK  116  A    between atoms: _289  and  _290
REMARK  117  A    between atoms: _289  and  _292
REMARK  118  A    between atoms: _295  and  _297
REMARK  119  A    between atoms: _297  and  _298
REMARK  120  A    between atoms: _297  and  _300
REMARK  121  A    between atoms: _300  and  _301
REMARK  122  A    between atoms: _304  and  _306
REMARK  123  A    between atoms: _306  and  _307
REMARK  124  A    between atoms: _309  and  _311
REMARK  125  A    between atoms: _311  and  _312
REMARK  126  A    between atoms: _311  and  _314
REMARK  127  A    between atoms: _314  and  _315
REMARK  128  A    between atoms: _318  and  _320
REMARK  129  A    between atoms: _320  and  _321
REMARK  130  A    between atoms: _320  and  _323
REMARK  131  A    between atoms: _323  and  _324
REMARK  132  A    between atoms: _329  and  _331
REMARK  133  A    between atoms: _331  and  _332
REMARK  134  A    between atoms: _331  and  _334
REMARK  135  A    between atoms: _337  and  _339
REMARK  136  A    between atoms: _339  and  _340
REMARK  137  A    between atoms: _339  and  _342
REMARK  138  A    between atoms: _342  and  _343
REMARK  139  A    between atoms: _343  and  _344
REMARK  140  A    between atoms: _349  and  _351
REMARK  141  A    between atoms: _351  and  _352
REMARK  142  A    between atoms: _351  and  _354
REMARK  143  A    between atoms: _354  and  _355
REMARK  144  A    between atoms: _359  and  _360
REMARK  145  A    between atoms: _365  and  _367
REMARK  146  A    between atoms: _367  and  _368
REMARK  147  A    between atoms: _367  and  _370
REMARK  148  A    between atoms: _370  and  _371
REMARK  149  A    between atoms: _371  and  _372
REMARK  150  A    between atoms: _375  and  _377
REMARK  151  A    between atoms: _377  and  _378
REMARK  152  A    between atoms: _377  and  _380
REMARK  153  A    between atoms: _380  and  _381
REMARK  154  A    between atoms: _384  and  _386
REMARK  155  A    between atoms: _386  and  _387
REMARK  156  A    between atoms: _386  and  _389
REMARK  157  A    between atoms: _389  and  _390
REMARK  158  A    between atoms: _390  and  _391
REMARK  159  A    between atoms: _391  and  _392
REMARK  160  A    between atoms: _392  and  _393
REMARK  161  A    between atoms: _397  and  _399
REMARK  162  A    between atoms: _399  and  _400
REMARK  163  A    between atoms: _399  and  _402
REMARK  164  A    between atoms: _402  and  _403
REMARK  165  A    between atoms: _406  and  _408
REMARK  166  A    between atoms: _408  and  _409
REMARK  167  A    between atoms: _408  and  _411
REMARK  168  A    between atoms: _411  and  _412
REMARK  169  A    between atoms: _412  and  _413
REMARK  170  A    between atoms: _413  and  _414
REMARK  171  A    between atoms: _423  and  _425
REMARK  172  A    between atoms: _425  and  _426
REMARK  173  A    between atoms: _429  and  _431
REMARK  174  A    between atoms: _431  and  _432
REMARK  175  A    between atoms: _431  and  _434
REMARK  176  A    between atoms: _434  and  _435
REMARK  177  A    between atoms: _438  and  _440
REMARK  178  A    between atoms: _440  and  _441
REMARK  179  A    between atoms: _440  and  _443
REMARK  180  A    between atoms: _443  and  _444
REMARK  181  A    between atoms: _447  and  _449
REMARK  182  A    between atoms: _449  and  _450
REMARK  183  A    between atoms: _449  and  _452
REMARK  184  A    between atoms: _452  and  _453
REMARK  185  A    between atoms: _456  and  _458
REMARK  186  A    between atoms: _458  and  _459
REMARK  187  A    between atoms: _458  and  _461
REMARK  188  A    between atoms: _461  and  _462
REMARK  189  A    between atoms: _467  and  _468
REMARK  190  A    between atoms: _470  and  _472
REMARK  191  A    between atoms: _472  and  _473
REMARK  192  A    between atoms: _472  and  _475
REMARK  193  A    between atoms: _475  and  _476
REMARK  194  A    between atoms: _476  and  _477
REMARK  195  A    between atoms: _477  and  _478
REMARK  196  A    between atoms: _478  and  _479
REMARK  197  A    between atoms: _483  and  _485
REMARK  198  A    between atoms: _485  and  _486
REMARK  199  A    between atoms: _485  and  _488
REMARK  200  A    between atoms: _488  and  _489
REMARK  201  A    between atoms: _492  and  _494
REMARK  202  A    between atoms: _494  and  _495
REMARK  203  A    between atoms: _497  and  _499
REMARK  204  A    between atoms: _499  and  _500
REMARK  205  A    between atoms: _499  and  _502
REMARK  206  A    between atoms: _502  and  _503
REMARK  207  A    between atoms: _503  and  _504
REMARK  208  A    between atoms: _507  and  _509
REMARK  209  A    between atoms: _509  and  _510
REMARK  210  A    between atoms: _509  and  _512
REMARK  211  A    between atoms: _512  and  _513
REMARK  212  A    between atoms: _519  and  _521
REMARK  213  A    between atoms: _521  and  _522
REMARK  214  A    between atoms: _521  and  _524
REMARK  215  A    between atoms: _524  and  _525
REMARK  216  A    between atoms: _527  and  _529
REMARK  217  A    between atoms: _529  and  _530
REMARK  218  A    between atoms: _529  and  _532
REMARK  219  A    between atoms: _532  and  _533
REMARK  220  A    between atoms: _536  and  _538
REMARK  221  A    between atoms: _538  and  _539
REMARK  222  A    between atoms: _538  and  _541
REMARK  223  A    between atoms: _541  and  _542
REMARK  224  A    between atoms: _542  and  _543
REMARK  225  A    between atoms: _543  and  _544
REMARK  226  A    between atoms: _553  and  _555
REMARK  227  A    between atoms: _555  and  _556
REMARK  228  A    between atoms: _555  and  _558
REMARK  229  A    between atoms: _558  and  _559
REMARK  230  A    between atoms: _559  and  _560
REMARK  231  A    between atoms: _560  and  _561
REMARK                            x       y       z     vdW  Elec       q    Type
REMARK                         _______ _______ _______ _____ _____    ______ ____
ROOT
ATOM      1  CA  ASN A   4      -8.439 -10.202  10.311  0.00  0.00    +0.158 C 
ENDROOT
BRANCH   1   2
ATOM      2  C   ASN A   4      -9.830  -9.587  10.453  0.00  0.00    +0.241 C 
ATOM      3  O   ASN A   4      -9.969  -8.491  10.992  0.00  0.00    -0.273 OA
ATOM      4  N   ASP A   5     -10.851 -10.300   9.986  0.00  0.00    -0.297 N 
ATOM      5  H   ASP A   5     -10.656 -11.186   9.478  0.00  0.00    +0.150 HD
BRANCH   4   6
ATOM      6  CA  ASP A   5     -12.240  -9.877  10.165  0.00  0.00    +0.160 C 
BRANCH   6   7
ATOM      7  C   ASP A   5     -13.229 -10.992   9.830  0.00  0.00    +0.241 C 
ATOM      8  N   VAL A   6     -14.380 -10.974  10.497  0.00  0.00    -0.297 N 
ATOM      9  H   VAL A   6     -14.532 -10.241  11.219  0.00  0.00    +0.150 HD
ATOM     10  O   ASP A   5     -12.951 -11.851   8.993  0.00  0.00    -0.273 OA
BRANCH   8  11
ATOM     11  CA  VAL A   6     -15.436 -11.951  10.247  0.00  0.00    +0.149 C 
BRANCH  11  12
ATOM     12  C   VAL A   6     -16.659 -11.278   9.632  0.00  0.00    +0.241 C 
ATOM     13  O   VAL A   6     -17.213 -10.338  10.201  0.00  0.00    -0.273 OA
ATOM     14  N   TYR A   7     -17.076 -11.770   8.470  0.00  0.00    -0.298 N 
ATOM     15  H   TYR A   7     -16.606 -12.612   8.080  0.00  0.00    +0.150 HD
BRANCH  14  16
ATOM     16  CA  TYR A   7     -18.174 -11.163   7.726  0.00  0.00    +0.141 C 
BRANCH  16  17
ATOM     17  C   TYR A   7     -19.341 -12.120   7.519  0.00  0.00    +0.227 C 
ATOM     18  O   TYR A   7     -19.180 -13.338   7.558  0.00  0.00    -0.286 OA
ENDBRANCH  16  17
BRANCH  16  19
ATOM     19  CB  TYR A   7     -17.681 -10.685   6.357  0.00  0.00    +0.054 C 
BRANCH  19  20
ATOM     20  CG  TYR A   7     -17.002  -9.333   6.365  0.00  0.00    -0.020 A 
ATOM     21  CD2 TYR A   7     -15.776  -9.149   6.996  0.00  0.00    -0.001 A 
ATOM     22  CE2 TYR A   7     -15.153  -7.917   6.996  0.00  0.00    +0.036 A 
ATOM     23  CZ  TYR A   7     -15.752  -6.850   6.355  0.00  0.00    +0.134 A 
ATOM     24  CE1 TYR A   7     -16.964  -7.009   5.717  0.00  0.00    +0.036 A 
ATOM     25  CD1 TYR A   7     -17.579  -8.244   5.722  0.00  0.00    -0.001 A 
BRANCH  23  26
ATOM     26  OH  TYR A   7     -15.138  -5.618   6.350  0.00  0.00    -0.506 OA
ATOM     27  HH  TYR A   7     -14.284  -5.674   6.848  0.00  0.00    +0.292 HD
ENDBRANCH  23  26
ENDBRANCH  19  20
ENDBRANCH  16  19
ENDBRANCH  14  16
ENDBRANCH  11  12
BRANCH  11  28
ATOM     28  CB  VAL A   6     -15.864 -12.680  11.534  0.00  0.00    +0.027 C 
ATOM     29  CG2 VAL A   6     -14.697 -13.456  12.119  0.00  0.00    +0.002 C 
ATOM     30  CG1 VAL A   6     -17.037 -13.609  11.252  0.00  0.00    +0.002 C 
ENDBRANCH  11  28
ENDBRANCH   8  11
ENDBRANCH   6   7
BRANCH   6  31
ATOM     31  CB  ASP A   5     -12.552  -8.632   9.327  0.00  0.00    +0.143 C 
BRANCH  31  32
ATOM     32  CG  ASP A   5     -12.280  -7.337  10.075  0.00  0.00    +0.367 C 
ATOM     33  OD2 ASP A   5     -12.237  -7.366  11.322  0.00  0.00    -0.246 OA
ATOM     34  OD1 ASP A   5     -12.110  -6.288   9.418  0.00  0.00    -0.246 OA
ENDBRANCH  31  32
ENDBRANCH   6  31
ENDBRANCH   4   6
ENDBRANCH   1   2
BRANCH   1  37
ATOM     35  C   PRO A   3      -6.973 -11.129   8.619  0.00  0.00    +0.241 C 
ATOM     36  O   PRO A   3      -6.662 -12.077   9.345  0.00  0.00    -0.273 OA
ATOM     37  N   ASN A   4      -7.890 -10.227   8.958  0.00  0.00    -0.297 N 
ATOM     38  H   ASN A   4      -8.218  -9.535   8.255  0.00  0.00    +0.150 HD
BRANCH  35  41
ATOM     39  C   TRP A   2      -7.637 -10.012   5.416  0.00  0.00    +0.244 C 
ATOM     40  N   PRO A   3      -6.817  -9.863   6.466  0.00  0.00    -0.272 N 
ATOM     41  CA  PRO A   3      -6.281 -10.967   7.266  0.00  0.00    +0.152 C 
ATOM     42  CB  PRO A   3      -4.820 -10.543   7.497  0.00  0.00    +0.031 C 
ATOM     43  CG  PRO A   3      -4.686  -9.130   6.887  0.00  0.00    +0.024 C 
ATOM     44  CD  PRO A   3      -6.077  -8.622   6.726  0.00  0.00    +0.094 C 
ATOM     45  O   TRP A   2      -8.037  -9.060   4.750  0.00  0.00    -0.273 OA
BRANCH  39  46
ATOM     46  CA  TRP A   2      -8.057 -11.435   5.061  0.00  0.00    +0.153 C 
BRANCH  46  49
ATOM     47  C   LYS A   1     -10.348 -11.235   5.852  0.00  0.00    +0.238 C 
ATOM     48  O   LYS A   1      -9.984 -10.976   6.999  0.00  0.00    -0.274 OA
ATOM     49  N   TRP A   2      -9.499 -11.493   4.864  0.00  0.00    -0.297 N 
ATOM     50  H   TRP A   2      -9.873 -11.743   3.926  0.00  0.00    +0.150 HD
BRANCH  47  51
ATOM     51  CA  LYS A   1     -11.827 -11.282   5.495  0.00  0.00    +0.145 C 
BRANCH  51  52
ATOM     52  N   LYS A   1     -12.508 -12.292   6.292  0.00  0.00    -0.238 NA
ATOM     53  H   LYS A   1     -12.866 -12.038   7.235  0.00  0.00    +0.142 HD
ENDBRANCH  51  52
BRANCH  51  54
ATOM     54  CB  LYS A   1     -12.448  -9.906   5.719  0.00  0.00    +0.026 C 
BRANCH  54  55
ATOM     55  CG  LYS A   1     -11.705  -8.783   5.013  0.00  0.00    -0.000 C 
BRANCH  55  56
ATOM     56  CD  LYS A   1     -12.131  -8.660   3.564  0.00  0.00    -0.024 C 
BRANCH  56  57
ATOM     57  CE  LYS A   1     -13.444  -7.904   3.444  0.00  0.00    -0.086 C 
BRANCH  57  58
ATOM     58  NZ  LYS A   1     -13.300  -6.491   3.891  0.00  0.00    +0.380 N 
ATOM     59  HZ1 LYS A   1     -12.998  -6.473   4.886  0.00  0.00    -0.089 HD
ATOM     60  HZ2 LYS A   1     -14.214  -6.004   3.796  0.00  0.00    -0.089 HD
ATOM     61  HZ3 LYS A   1     -12.588  -6.013   3.302  0.00  0.00    -0.089 HD
ENDBRANCH  57  58
ENDBRANCH  56  57
ENDBRANCH  55  56
ENDBRANCH  54  55
ENDBRANCH  51  54
ENDBRANCH  47  51
ENDBRANCH  46  49
BRANCH  46  62
ATOM     62  CB  TRP A   2      -7.337 -11.909   3.796  0.00  0.00    +0.057 C 
BRANCH  62  63
ATOM     63  CG  TRP A   2      -5.856 -12.080   3.944  0.00  0.00    -0.002 A 
ATOM     64  CD1 TRP A   2      -5.199 -13.187   4.397  0.00  0.00    +0.068 A 
ATOM     65  NE1 TRP A   2      -3.841 -12.971   4.385  0.00  0.00    -0.352 N 
ATOM     66  HE1 TRP A   2      -3.117 -13.655   4.683  0.00  0.00    +0.166 HD
ATOM     67  CE2 TRP A   2      -3.598 -11.707   3.916  0.00  0.00    +0.056 A 
ATOM     68  CZ2 TRP A   2      -2.391 -11.038   3.723  0.00  0.00    +0.017 A 
ATOM     69  CH2 TRP A   2      -2.449  -9.762   3.232  0.00  0.00    +0.001 A 
ATOM     70  CZ3 TRP A   2      -3.672  -9.147   2.935  0.00  0.00    +0.000 A 
ATOM     71  CE3 TRP A   2      -4.871  -9.810   3.126  0.00  0.00    +0.001 A 
ATOM     72  CD2 TRP A   2      -4.844 -11.116   3.626  0.00  0.00    +0.013 A 
ENDBRANCH  62  63
ENDBRANCH  46  62
ENDBRANCH  39  46
ENDBRANCH  35  41
ENDBRANCH   1  37
BRANCH   1  73
ATOM     73  CB  ASN A   4      -7.462  -9.484  11.247  0.00  0.00    +0.114 C 
BRANCH  73  74
ATOM     74  CG  ASN A   4      -7.003  -8.147  10.692  0.00  0.00    +0.222 C 
ATOM     75  ND2 ASN A   4      -5.801  -7.729  11.071  0.00  0.00    -0.329 N 
ATOM     76 HD21 ASN A   4      -5.228  -8.310  11.715  0.00  0.00    +0.145 HD
ATOM     77 HD22 ASN A   4      -5.433  -6.820  10.724  0.00  0.00    +0.145 HD
ATOM     78  OD1 ASN A   4      -7.722  -7.497   9.931  0.00  0.00    -0.275 OA
ENDBRANCH  73  74
ENDBRANCH   1  73
TORSDOF 28
REMARK  Name = ../refined-set-2016/3efs/3efs_pocket.pdb
REMARK  231 active torsions:
REMARK  status: ('A' for Active; 'I' for Inactive)
REMARK    1  A    between atoms: _1  and  _3
REMARK    2  A    between atoms: _3  and  _4
REMARK    3  A    between atoms: _6  and  _8
REMARK    4  A    between atoms: _8  and  _9
REMARK    5  A    between atoms: _8  and  _11
REMARK    6  A    between atoms: _11  and  _12
REMARK    7  A    between atoms: _12  and  _13
REMARK    8  A    between atoms: _13  and  _14
REMARK    9  A    between atoms: _23  and  _25
REMARK   10  A    between atoms: _25  and  _26
REMARK   11  A    between atoms: _28  and  _30
REMARK   12  A    between atoms: _30  and  _31
REMARK   13  A    between atoms: _30  and  _33
REMARK   14  A    between atoms: _33  and  _34
REMARK   15  A    between atoms: _34  and  _35
REMARK   16  A    between atoms: _35  and  _36
REMARK   17  A    between atoms: _45  and  _47
REMARK   18  A    between atoms: _47  and  _48
REMARK   19  A    between atoms: _47  and  _50
REMARK   20  A    between atoms: _50  and  _51
REMARK   21  A    between atoms: _54  and  _56
REMARK   22  A    between atoms: _56  and  _57
REMARK   23  A    between atoms: _59  and  _61
REMARK   24  A    between atoms: _61  and  _62
REMARK   25  A    between atoms: _61  and  _64
REMARK   26  A    between atoms: _64  and  _65
REMARK   27  A    between atoms: _65  and  _66
REMARK   28  A    between atoms: _66  and  _67
REMARK   29  A    between atoms: _76  and  _78
REMARK   30  A    between atoms: _78  and  _79
REMARK   31  A    between atoms: _78  and  _81
REMARK   32  A    between atoms: _81  and  _82
REMARK   33  A    between atoms: _82  and  _83
REMARK   34  A    between atoms: _83  and  _84
REMARK   35  A    between atoms: _84  and  _85
REMARK   36  A    between atoms: _89  and  _91
REMARK   37  A    between atoms: _91  and  _92
REMARK   38  A    between atoms: _91  and  _94
REMARK   39  A    between atoms: _94  and  _95
REMARK   40  A    between atoms: _105  and  _107
REMARK   41  A    between atoms: _107  and  _108
REMARK   42  A    between atoms: _107  and  _110
REMARK   43  A    between atoms: _110  and  _111
REMARK   44  A    between atoms: _114  and  _116
REMARK   45  A    between atoms: _116  and  _117
REMARK   46  A    between atoms: _116  and  _119
REMARK   47  A    between atoms: _119  and  _120
REMARK   48  A    between atoms: _122  and  _124
REMARK   49  A    between atoms: _124  and  _125
REMARK   50  A    between atoms: _124  and  _127
REMARK   51  A    between atoms: _127  and  _128
REMARK   52  A    between atoms: _128  and  _129
REMARK   53  A    between atoms: _134  and  _136
REMARK   54  A    between atoms: _136  and  _137
REMARK   55  A    between atoms: _139  and  _141
REMARK   56  A    between atoms: _141  and  _142
REMARK   57  A    between atoms: _141  and  _144
REMARK   58  A    between atoms: _144  and  _145
REMARK   59  A    between atoms: _148  and  _150
REMARK   60  A    between atoms: _150  and  _151
REMARK   61  A    between atoms: _150  and  _153
REMARK   62  A    between atoms: _153  and  _154
REMARK   63  A    between atoms: _159  and  _160
REMARK   64  A    between atoms: _162  and  _164
REMARK   65  A    between atoms: _164  and  _165
REMARK   66  A    between atoms: _164  and  _167
REMARK   67  A    between atoms: _167  and  _168
REMARK   68  A    between atoms: _168  and  _169
REMARK   69  A    between atoms: _169  and  _170
REMARK   70  A    between atoms: _170  and  _171
REMARK   71  A    between atoms: _175  and  _177
REMARK   72  A    between atoms: _177  and  _178
REMARK   73  A    between atoms: _177  and  _180
REMARK   74  A    between atoms: _180  and  _181
REMARK   75  A    between atoms: _192  and  _193
REMARK   76  A    between atoms: _198  and  _200
REMARK   77  A    between atoms: _200  and  _201
REMARK   78  A    between atoms: _200  and  _203
REMARK   79  A    between atoms: _203  and  _204
REMARK   80  A    between atoms: _209  and  _211
REMARK   81  A    between atoms: _211  and  _212
REMARK   82  A    between atoms: _211  and  _214
REMARK   83  A    between atoms: _214  and  _215
REMARK   84  A    between atoms: _218  and  _220
REMARK   85  A    between atoms: _220  and  _221
REMARK   86  A    between atoms: _220  and  _223
REMARK   87  A    between atoms: _226  and  _228
REMARK   88  A    between atoms: _228  and  _229
REMARK   89  A    between atoms: _228  and  _231
REMARK   90  A    between atoms: _231  and  _232
REMARK   91  A    between atoms: _237  and  _238
REMARK   92  A    between atoms: _240  and  _242
REMARK   93  A    between atoms: _242  and  _243
REMARK   94  A    between atoms: _242  and  _245
REMARK   95  A    between atoms: _245  and  _246
REMARK   96  A    between atoms: _246  and  _247
REMARK   97  A    between atoms: _247  and  _248
REMARK   98  A    between atoms: _248  and  _249
REMARK   99  A    between atoms: _253  and  _255
REMARK  100  A    between atoms: _255  and  _256
REMARK  101  A    between atoms: _255  and  _258
REMARK  102  A    between atoms: _258  and  _259
REMARK  103  A    between atoms: _259  and  _260
REMARK  104  A    between atoms: _260  and  _261
REMARK  105  A    between atoms: _261  and  _262
REMARK  106  A    between atoms: _266  and  _268
REMARK  107  A    between atoms: _268  and  _269
REMARK  108  A    between atoms: _268  and  _271
REMARK  109  A    between atoms: _274  and  _276
REMARK  110  A    between atoms: _276  and  _277
REMARK  111  A    between atoms: _276  and  _279
REMARK  112  A    between atoms: _279  and  _280
REMARK  113  A    between atoms: _282  and  _284
REMARK  114  A    between atoms: _284  and  _285
REMARK  115  A    between atoms: _287  and  _289
REMARK  116  A    between atoms: _289  and  _290
REMARK  117  A    between atoms: _289  and  _292
REMARK  118  A    between atoms: _295  and  _297
REMARK  119  A    between atoms: _297  and  _298
REMARK  120  A    between atoms: _297  and  _300
REMARK  121  A    between atoms: _300  and  _301
REMARK  122  A    between atoms: _304  and  _306
REMARK  123  A    between atoms: _306  and  _307
REMARK  124  A    between atoms: _309  and  _311
REMARK  125  A    between atoms: _311  and  _312
REMARK  126  A    between atoms: _311  and  _314
REMARK  127  A    between atoms: _314  and  _315
REMARK  128  A    between atoms: _318  and  _320
REMARK  129  A    between atoms: _320  and  _321
REMARK  130  A    between atoms: _320  and  _323
REMARK  131  A    between atoms: _323  and  _324
REMARK  132  A    between atoms: _329  and  _331
REMARK  133  A    between atoms: _331  and  _332
REMARK  134  A    between atoms: _331  and  _334
REMARK  135  A    between atoms: _337  and  _339
REMARK  136  A    between atoms: _339  and  _340
REMARK  137  A    between atoms: _339  and  _342
REMARK  138  A    between atoms: _342  and  _343
REMARK  139  A    between atoms: _343  and  _344
REMARK  140  A    between atoms: _349  and  _351
REMARK  141  A    between atoms: _351  and  _352
REMARK  142  A    between atoms: _351  and  _354
REMARK  143  A    between atoms: _354  and  _355
REMARK  144  A    between atoms: _359  and  _360
REMARK  145  A    between atoms: _365  and  _367
REMARK  146  A    between atoms: _367  and  _368
REMARK  147  A    between atoms: _367  and  _370
REMARK  148  A    between atoms: _370  and  _371
REMARK  149  A    between atoms: _371  and  _372
REMARK  150  A    between atoms: _375  and  _377
REMARK  151  A    between atoms: _377  and  _378
REMARK  152  A    between atoms: _377  and  _380
REMARK  153  A    between atoms: _380  and  _381
REMARK  154  A    between atoms: _384  and  _386
REMARK  155  A    between atoms: _386  and  _387
REMARK  156  A    between atoms: _386  and  _389
REMARK  157  A    between atoms: _389  and  _390
REMARK  158  A    between atoms: _390  and  _391
REMARK  159  A    between atoms: _391  and  _392
REMARK  160  A    between atoms: _392  and  _393
REMARK  161  A    between atoms: _397  and  _399
REMARK  162  A    between atoms: _399  and  _400
REMARK  163  A    between atoms: _399  and  _402
REMARK  164  A    between atoms: _402  and  _403
REMARK  165  A    between atoms: _406  and  _408
REMARK  166  A    between atoms: _408  and  _409
REMARK  167  A    between atoms: _408  and  _411
REMARK  168  A    between atoms: _411  and  _412
REMARK  169  A    between atoms: _412  and  _413
REMARK  170  A    between atoms: _413  and  _414
REMARK  171  A    between atoms: _423  and  _425
REMARK  172  A    between atoms: _425  and  _426
REMARK  173  A    between atoms: _429  and  _431
REMARK  174  A    between atoms: _431  and  _432
REMARK  175  A    between atoms: _431  and  _434
REMARK  176  A    between atoms: _434  and  _435
REMARK  177  A    between atoms: _438  and  _440
REMARK  178  A    between atoms: _440  and  _441
REMARK  179  A    between atoms: _440  and  _443
REMARK  180  A    between atoms: _443  and  _444
REMARK  181  A    between atoms: _447  and  _449
REMARK  182  A    between atoms: _449  and  _450
REMARK  183  A    between atoms: _449  and  _452
REMARK  184  A    between atoms: _452  and  _453
REMARK  185  A    between atoms: _456  and  _458
REMARK  186  A    between atoms: _458  and  _459
REMARK  187  A    between atoms: _458  and  _461
REMARK  188  A    between atoms: _461  and  _462
REMARK  189  A    between atoms: _467  and  _468
REMARK  190  A    between atoms: _470  and  _472
REMARK  191  A    between atoms: _472  and  _473
REMARK  192  A    between atoms: _472  and  _475
REMARK  193  A    between atoms: _475  and  _476
REMARK  194  A    between atoms: _476  and  _477
REMARK  195  A    between atoms: _477  and  _478
REMARK  196  A    between atoms: _478  and  _479
REMARK  197  A    between atoms: _483  and  _485
REMARK  198  A    between atoms: _485  and  _486
REMARK  199  A    between atoms: _485  and  _488
REMARK  200  A    between atoms: _488  and  _489
REMARK  201  A    between atoms: _492  and  _494
REMARK  202  A    between atoms: _494  and  _495
REMARK  203  A    between atoms: _497  and  _499
REMARK  204  A    between atoms: _499  and  _500
REMARK  205  A    between atoms: _499  and  _502
REMARK  206  A    between atoms: _502  and  _503
REMARK  207  A    between atoms: _503  and  _504
REMARK  208  A    between atoms: _507  and  _509
REMARK  209  A    between atoms: _509  and  _510
REMARK  210  A    between atoms: _509  and  _512
REMARK  211  A    between atoms: _512  and  _513
REMARK  212  A    between atoms: _519  and  _521
REMARK  213  A    between atoms: _521  and  _522
REMARK  214  A    between atoms: _521  and  _524
REMARK  215  A    between atoms: _524  and  _525
REMARK  216  A    between atoms: _527  and  _529
REMARK  217  A    between atoms: _529  and  _530
REMARK  218  A    between atoms: _529  and  _532
REMARK  219  A    between atoms: _532  and  _533
REMARK  220  A    between atoms: _536  and  _538
REMARK  221  A    between atoms: _538  and  _539
REMARK  222  A    between atoms: _538  and  _541
REMARK  223  A    between atoms: _541  and  _542
REMARK  224  A    between atoms: _542  and  _543
REMARK  225  A    between atoms: _543  and  _544
REMARK  226  A    between atoms: _553  and  _555
REMARK  227  A    between atoms: _555  and  _556
REMARK  228  A    between atoms: _555  and  _558
REMARK  229  A    between atoms: _558  and  _559
REMARK  230  A    between atoms: _559  and  _560
REMARK  231  A    between atoms: _560  and  _561
REMARK                            x       y       z     vdW  Elec       q    Type
REMARK                         _______ _______ _______ _____ _____    ______ ____
ROOT
ATOM      1  CA  VAL A   3     -20.017  -8.852  12.161  0.00  0.00    +0.149 C 
ENDROOT
BRANCH   1   2
ATOM      2  C   VAL A   3     -19.039  -8.838  13.330  0.00  0.00    +0.241 C 
ATOM      3  O   VAL A   3     -19.429  -8.622  14.476  0.00  0.00    -0.273 OA
ATOM      4  N   SER A   4     -17.765  -9.070  13.039  0.00  0.00    -0.295 N 
ATOM      5  H   SER A   4     -17.484  -9.213  12.048  0.00  0.00    +0.150 HD
BRANCH   4   6
ATOM      6  CA  SER A   4     -16.753  -9.128  14.086  0.00  0.00    +0.178 C 
BRANCH   6   7
ATOM      7  C   SER A   4     -15.397  -8.636  13.595  0.00  0.00    +0.243 C 
ATOM      8  N   GLY A   5     -14.739  -7.831  14.421  0.00  0.00    -0.295 N 
ATOM      9  H   GLY A   5     -15.181  -7.563  15.323  0.00  0.00    +0.150 HD
ATOM     10  O   SER A   4     -14.961  -8.977  12.495  0.00  0.00    -0.273 OA
BRANCH   8  11
ATOM     11  CA  GLY A   5     -13.422  -7.315  14.101  0.00  0.00    +0.176 C 
BRANCH  11  12
ATOM     12  C   GLY A   5     -12.375  -7.807  15.081  0.00  0.00    +0.243 C 
ATOM     13  O   GLY A   5     -12.600  -7.817  16.292  0.00  0.00    -0.273 OA
ATOM     14  N   VAL A   6     -11.228  -8.223  14.553  0.00  0.00    -0.297 N 
ATOM     15  H   VAL A   6     -11.106  -8.191  13.521  0.00  0.00    +0.150 HD
BRANCH  14  16
ATOM     16  CA  VAL A   6     -10.135  -8.723  15.380  0.00  0.00    +0.149 C 
BRANCH  16  17
ATOM     17  C   VAL A   6      -8.961  -7.752  15.369  0.00  0.00    +0.241 C 
ATOM     18  N   LEU A   7      -8.449  -7.439  16.554  0.00  0.00    -0.298 N 
ATOM     19  H   LEU A   7      -8.824  -7.901  17.407  0.00  0.00    +0.150 HD
ATOM     20  O   VAL A   6      -8.519  -7.308  14.309  0.00  0.00    -0.273 OA
BRANCH  18  21
ATOM     21  CA  LEU A   7      -7.375  -6.465  16.688  0.00  0.00    +0.137 C 
BRANCH  21  22
ATOM     22  C   LEU A   7      -6.256  -6.960  17.602  0.00  0.00    +0.227 C 
ATOM     23  O   LEU A   7      -6.511  -7.542  18.655  0.00  0.00    -0.286 OA
ENDBRANCH  21  22
BRANCH  21  24
ATOM     24  CB  LEU A   7      -7.935  -5.143  17.216  0.00  0.00    +0.028 C 
BRANCH  24  25
ATOM     25  CG  LEU A   7      -6.943  -4.121  17.772  0.00  0.00    +0.002 C 
ATOM     26  CD2 LEU A   7      -7.689  -2.924  18.339  0.00  0.00    +0.000 C 
ATOM     27  CD1 LEU A   7      -5.954  -3.681  16.706  0.00  0.00    +0.000 C 
ENDBRANCH  24  25
ENDBRANCH  21  24
ENDBRANCH  18  21
ENDBRANCH  16  17
BRANCH  16  28
ATOM     28  CB  VAL A   6      -9.640 -10.097  14.899  0.00  0.00    +0.027 C 
ATOM     29  CG2 VAL A   6      -8.449 -10.550  15.731  0.00  0.00    +0.002 C 
ATOM     30  CG1 VAL A   6     -10.764 -11.117  14.960  0.00  0.00    +0.002 C 
ENDBRANCH  16  28
ENDBRANCH  14  16
ENDBRANCH  11  12
ENDBRANCH   8  11
ENDBRANCH   6   7
BRANCH   6  31
ATOM     31  CB  SER A   4     -16.629 -10.552  14.633  0.00  0.00    +0.166 C 
BRANCH  31  32
ATOM     32  OG  SER A   4     -15.561 -10.654  15.560  0.00  0.00    -0.380 OA
ATOM     33  H   SER A   4     -15.723 -10.037  16.317  0.00  0.00    +0.211 HD
ENDBRANCH  31  32
ENDBRANCH   6  31
ENDBRANCH   4   6
ENDBRANCH   1   2
BRANCH   1  35
ATOM     34  C   LYS A   2     -19.638  -7.375  10.264  0.00  0.00    +0.241 C 
ATOM     35  N   VAL A   3     -19.360  -8.504  10.906  0.00  0.00    -0.297 N 
ATOM     36  H   VAL A   3     -18.657  -9.156  10.504  0.00  0.00    +0.150 HD
ATOM     37  O   LYS A   2     -20.437  -6.541  10.688  0.00  0.00    -0.273 OA
BRANCH  34  38
ATOM     38  CA  LYS A   2     -18.902  -7.151   8.948  0.00  0.00    +0.149 C 
BRANCH  38  40
ATOM     39  C   LYS A   1     -20.551  -7.550   7.209  0.00  0.00    +0.238 C 
ATOM     40  N   LYS A   2     -19.818  -6.693   7.911  0.00  0.00    -0.297 N 
ATOM     41  H   LYS A   2     -19.899  -5.675   7.717  0.00  0.00    +0.150 HD
ATOM     42  O   LYS A   1     -20.492  -8.769   7.372  0.00  0.00    -0.274 OA
BRANCH  39  43
ATOM     43  CA  LYS A   1     -21.491  -6.945   6.170  0.00  0.00    +0.145 C 
BRANCH  43  44
ATOM     44  N   LYS A   1     -21.513  -7.740   4.949  0.00  0.00    -0.238 NA
ATOM     45  H   LYS A   1     -22.094  -8.602   4.917  0.00  0.00    +0.142 HD
ENDBRANCH  43  44
BRANCH  43  46
ATOM     46  CB  LYS A   1     -22.902  -6.827   6.748  0.00  0.00    +0.026 C 
BRANCH  46  47
ATOM     47  CG  LYS A   1     -23.946  -6.348   5.751  0.00  0.00    -0.000 C 
BRANCH  47  48
ATOM     48  CD  LYS A   1     -23.771  -4.874   5.423  0.00  0.00    -0.024 C 
BRANCH  48  49
ATOM     49  CE  LYS A   1     -24.926  -4.359   4.578  0.00  0.00    -0.086 C 
BRANCH  49  50
ATOM     50  NZ  LYS A   1     -26.240  -4.563   5.251  0.00  0.00    +0.380 N 
ATOM     51  HZ1 LYS A   1     -26.246  -4.054   6.158  0.00  0.00    -0.089 HD
ATOM     52  HZ2 LYS A   1     -26.387  -5.578   5.421  0.00  0.00    -0.089 HD
ATOM     53  HZ3 LYS A   1     -27.000  -4.199   4.642  0.00  0.00    -0.089 HD
ENDBRANCH  49  50
ENDBRANCH  48  49
ENDBRANCH  47  48
ENDBRANCH  46  47
ENDBRANCH  43  46
ENDBRANCH  39  43
ENDBRANCH  38  40
BRANCH  38  54
ATOM     54  CB  LYS A   2     -17.760  -6.152   9.148  0.00  0.00    +0.029 C 
BRANCH  54  55
ATOM     55  CG  LYS A   2     -16.750  -6.594  10.193  0.00  0.00    +0.000 C 
BRANCH  55  56
ATOM     56  CD  LYS A   2     -15.487  -5.750  10.148  0.00  0.00    -0.024 C 
BRANCH  56  57
ATOM     57  CE  LYS A   2     -15.765  -4.316  10.553  0.00  0.00    -0.086 C 
BRANCH  57  58
ATOM     58  NZ  LYS A   2     -14.514  -3.510  10.580  0.00  0.00    +0.380 N 
ATOM     59  HZ1 LYS A   2     -13.850  -3.925  11.265  0.00  0.00    -0.089 HD
ATOM     60  HZ2 LYS A   2     -14.738  -2.534  10.861  0.00  0.00    -0.089 HD
ATOM     61  HZ3 LYS A   2     -14.083  -3.510   9.634  0.00  0.00    -0.089 HD
ENDBRANCH  57  58
ENDBRANCH  56  57
ENDBRANCH  55  56
ENDBRANCH  54  55
ENDBRANCH  38  54
ENDBRANCH  34  38
ENDBRANCH   1  35
BRANCH   1  62
ATOM     62  CB  VAL A   3     -20.674 -10.242  12.086  0.00  0.00    +0.027 C 
ATOM     63  CG2 VAL A   3     -21.523 -10.494  13.325  0.00  0.00    +0.002 C 
ATOM     64  CG1 VAL A   3     -21.520 -10.363  10.829  0.00  0.00    +0.002 C 
ENDBRANCH   1  62
TORSDOF 30
REMARK  Name = ../refined-set-2016/3efs/3efs_pocket.pdb
REMARK  231 active torsions:
REMARK  status: ('A' for Active; 'I' for Inactive)
REMARK    1  A    between atoms: _1  and  _3
REMARK    2  A    between atoms: _3  and  _4
REMARK    3  A    between atoms: _6  and  _8
REMARK    4  A    between atoms: _8  and  _9
REMARK    5  A    between atoms: _8  and  _11
REMARK    6  A    between atoms: _11  and  _12
REMARK    7  A    between atoms: _12  and  _13
REMARK    8  A    between atoms: _13  and  _14
REMARK    9  A    between atoms: _23  and  _25
REMARK   10  A    between atoms: _25  and  _26
REMARK   11  A    between atoms: _28  and  _30
REMARK   12  A    between atoms: _30  and  _31
REMARK   13  A    between atoms: _30  and  _33
REMARK   14  A    between atoms: _33  and  _34
REMARK   15  A    between atoms: _34  and  _35
REMARK   16  A    between atoms: _35  and  _36
REMARK   17  A    between atoms: _45  and  _47
REMARK   18  A    between atoms: _47  and  _48
REMARK   19  A    between atoms: _47  and  _50
REMARK   20  A    between atoms: _50  and  _51
REMARK   21  A    between atoms: _54  and  _56
REMARK   22  A    between atoms: _56  and  _57
REMARK   23  A    between atoms: _59  and  _61
REMARK   24  A    between atoms: _61  and  _62
REMARK   25  A    between atoms: _61  and  _64
REMARK   26  A    between atoms: _64  and  _65
REMARK   27  A    between atoms: _65  and  _66
REMARK   28  A    between atoms: _66  and  _67
REMARK   29  A    between atoms: _76  and  _78
REMARK   30  A    between atoms: _78  and  _79
REMARK   31  A    between atoms: _78  and  _81
REMARK   32  A    between atoms: _81  and  _82
REMARK   33  A    between atoms: _82  and  _83
REMARK   34  A    between atoms: _83  and  _84
REMARK   35  A    between atoms: _84  and  _85
REMARK   36  A    between atoms: _89  and  _91
REMARK   37  A    between atoms: _91  and  _92
REMARK   38  A    between atoms: _91  and  _94
REMARK   39  A    between atoms: _94  and  _95
REMARK   40  A    between atoms: _105  and  _107
REMARK   41  A    between atoms: _107  and  _108
REMARK   42  A    between atoms: _107  and  _110
REMARK   43  A    between atoms: _110  and  _111
REMARK   44  A    between atoms: _114  and  _116
REMARK   45  A    between atoms: _116  and  _117
REMARK   46  A    between atoms: _116  and  _119
REMARK   47  A    between atoms: _119  and  _120
REMARK   48  A    between atoms: _122  and  _124
REMARK   49  A    between atoms: _124  and  _125
REMARK   50  A    between atoms: _124  and  _127
REMARK   51  A    between atoms: _127  and  _128
REMARK   52  A    between atoms: _128  and  _129
REMARK   53  A    between atoms: _134  and  _136
REMARK   54  A    between atoms: _136  and  _137
REMARK   55  A    between atoms: _139  and  _141
REMARK   56  A    between atoms: _141  and  _142
REMARK   57  A    between atoms: _141  and  _144
REMARK   58  A    between atoms: _144  and  _145
REMARK   59  A    between atoms: _148  and  _150
REMARK   60  A    between atoms: _150  and  _151
REMARK   61  A    between atoms: _150  and  _153
REMARK   62  A    between atoms: _153  and  _154
REMARK   63  A    between atoms: _159  and  _160
REMARK   64  A    between atoms: _162  and  _164
REMARK   65  A    between atoms: _164  and  _165
REMARK   66  A    between atoms: _164  and  _167
REMARK   67  A    between atoms: _167  and  _168
REMARK   68  A    between atoms: _168  and  _169
REMARK   69  A    between atoms: _169  and  _170
REMARK   70  A    between atoms: _170  and  _171
REMARK   71  A    between atoms: _175  and  _177
REMARK   72  A    between atoms: _177  and  _178
REMARK   73  A    between atoms: _177  and  _180
REMARK   74  A    between atoms: _180  and  _181
REMARK   75  A    between atoms: _192  and  _193
REMARK   76  A    between atoms: _198  and  _200
REMARK   77  A    between atoms: _200  and  _201
REMARK   78  A    between atoms: _200  and  _203
REMARK   79  A    between atoms: _203  and  _204
REMARK   80  A    between atoms: _209  and  _211
REMARK   81  A    between atoms: _211  and  _212
REMARK   82  A    between atoms: _211  and  _214
REMARK   83  A    between atoms: _214  and  _215
REMARK   84  A    between atoms: _218  and  _220
REMARK   85  A    between atoms: _220  and  _221
REMARK   86  A    between atoms: _220  and  _223
REMARK   87  A    between atoms: _226  and  _228
REMARK   88  A    between atoms: _228  and  _229
REMARK   89  A    between atoms: _228  and  _231
REMARK   90  A    between atoms: _231  and  _232
REMARK   91  A    between atoms: _237  and  _238
REMARK   92  A    between atoms: _240  and  _242
REMARK   93  A    between atoms: _242  and  _243
REMARK   94  A    between atoms: _242  and  _245
REMARK   95  A    between atoms: _245  and  _246
REMARK   96  A    between atoms: _246  and  _247
REMARK   97  A    between atoms: _247  and  _248
REMARK   98  A    between atoms: _248  and  _249
REMARK   99  A    between atoms: _253  and  _255
REMARK  100  A    between atoms: _255  and  _256
REMARK  101  A    between atoms: _255  and  _258
REMARK  102  A    between atoms: _258  and  _259
REMARK  103  A    between atoms: _259  and  _260
REMARK  104  A    between atoms: _260  and  _261
REMARK  105  A    between atoms: _261  and  _262
REMARK  106  A    between atoms: _266  and  _268
REMARK  107  A    between atoms: _268  and  _269
REMARK  108  A    between atoms: _268  and  _271
REMARK  109  A    between atoms: _274  and  _276
REMARK  110  A    between atoms: _276  and  _277
REMARK  111  A    between atoms: _276  and  _279
REMARK  112  A    between atoms: _279  and  _280
REMARK  113  A    between atoms: _282  and  _284
REMARK  114  A    between atoms: _284  and  _285
REMARK  115  A    between atoms: _287  and  _289
REMARK  116  A    between atoms: _289  and  _290
REMARK  117  A    between atoms: _289  and  _292
REMARK  118  A    between atoms: _295  and  _297
REMARK  119  A    between atoms: _297  and  _298
REMARK  120  A    between atoms: _297  and  _300
REMARK  121  A    between atoms: _300  and  _301
REMARK  122  A    between atoms: _304  and  _306
REMARK  123  A    between atoms: _306  and  _307
REMARK  124  A    between atoms: _309  and  _311
REMARK  125  A    between atoms: _311  and  _312
REMARK  126  A    between atoms: _311  and  _314
REMARK  127  A    between atoms: _314  and  _315
REMARK  128  A    between atoms: _318  and  _320
REMARK  129  A    between atoms: _320  and  _321
REMARK  130  A    between atoms: _320  and  _323
REMARK  131  A    between atoms: _323  and  _324
REMARK  132  A    between atoms: _329  and  _331
REMARK  133  A    between atoms: _331  and  _332
REMARK  134  A    between atoms: _331  and  _334
REMARK  135  A    between atoms: _337  and  _339
REMARK  136  A    between atoms: _339  and  _340
REMARK  137  A    between atoms: _339  and  _342
REMARK  138  A    between atoms: _342  and  _343
REMARK  139  A    between atoms: _343  and  _344
REMARK  140  A    between atoms: _349  and  _351
REMARK  141  A    between atoms: _351  and  _352
REMARK  142  A    between atoms: _351  and  _354
REMARK  143  A    between atoms: _354  and  _355
REMARK  144  A    between atoms: _359  and  _360
REMARK  145  A    between atoms: _365  and  _367
REMARK  146  A    between atoms: _367  and  _368
REMARK  147  A    between atoms: _367  and  _370
REMARK  148  A    between atoms: _370  and  _371
REMARK  149  A    between atoms: _371  and  _372
REMARK  150  A    between atoms: _375  and  _377
REMARK  151  A    between atoms: _377  and  _378
REMARK  152  A    between atoms: _377  and  _380
REMARK  153  A    between atoms: _380  and  _381
REMARK  154  A    between atoms: _384  and  _386
REMARK  155  A    between atoms: _386  and  _387
REMARK  156  A    between atoms: _386  and  _389
REMARK  157  A    between atoms: _389  and  _390
REMARK  158  A    between atoms: _390  and  _391
REMARK  159  A    between atoms: _391  and  _392
REMARK  160  A    between atoms: _392  and  _393
REMARK  161  A    between atoms: _397  and  _399
REMARK  162  A    between atoms: _399  and  _400
REMARK  163  A    between atoms: _399  and  _402
REMARK  164  A    between atoms: _402  and  _403
REMARK  165  A    between atoms: _406  and  _408
REMARK  166  A    between atoms: _408  and  _409
REMARK  167  A    between atoms: _408  and  _411
REMARK  168  A    between atoms: _411  and  _412
REMARK  169  A    between atoms: _412  and  _413
REMARK  170  A    between atoms: _413  and  _414
REMARK  171  A    between atoms: _423  and  _425
REMARK  172  A    between atoms: _425  and  _426
REMARK  173  A    between atoms: _429  and  _431
REMARK  174  A    between atoms: _431  and  _432
REMARK  175  A    between atoms: _431  and  _434
REMARK  176  A    between atoms: _434  and  _435
REMARK  177  A    between atoms: _438  and  _440
REMARK  178  A    between atoms: _440  and  _441
REMARK  179  A    between atoms: _440  and  _443
REMARK  180  A    between atoms: _443  and  _444
REMARK  181  A    between atoms: _447  and  _449
REMARK  182  A    between atoms: _449  and  _450
REMARK  183  A    between atoms: _449  and  _452
REMARK  184  A    between atoms: _452  and  _453
REMARK  185  A    between atoms: _456  and  _458
REMARK  186  A    between atoms: _458  and  _459
REMARK  187  A    between atoms: _458  and  _461
REMARK  188  A    between atoms: _461  and  _462
REMARK  189  A    between atoms: _467  and  _468
REMARK  190  A    between atoms: _470  and  _472
REMARK  191  A    between atoms: _472  and  _473
REMARK  192  A    between atoms: _472  and  _475
REMARK  193  A    between atoms: _475  and  _476
REMARK  194  A    between atoms: _476  and  _477
REMARK  195  A    between atoms: _477  and  _478
REMARK  196  A    between atoms: _478  and  _479
REMARK  197  A    between atoms: _483  and  _485
REMARK  198  A    between atoms: _485  and  _486
REMARK  199  A    between atoms: _485  and  _488
REMARK  200  A    between atoms: _488  and  _489
REMARK  201  A    between atoms: _492  and  _494
REMARK  202  A    between atoms: _494  and  _495
REMARK  203  A    between atoms: _497  and  _499
REMARK  204  A    between atoms: _499  and  _500
REMARK  205  A    between atoms: _499  and  _502
REMARK  206  A    between atoms: _502  and  _503
REMARK  207  A    between atoms: _503  and  _504
REMARK  208  A    between atoms: _507  and  _509
REMARK  209  A    between atoms: _509  and  _510
REMARK  210  A    between atoms: _509  and  _512
REMARK  211  A    between atoms: _512  and  _513
REMARK  212  A    between atoms: _519  and  _521
REMARK  213  A    between atoms: _521  and  _522
REMARK  214  A    between atoms: _521  and  _524
REMARK  215  A    between atoms: _524  and  _525
REMARK  216  A    between atoms: _527  and  _529
REMARK  217  A    between atoms: _529  and  _530
REMARK  218  A    between atoms: _529  and  _532
REMARK  219  A    between atoms: _532  and  _533
REMARK  220  A    between atoms: _536  and  _538
REMARK  221  A    between atoms: _538  and  _539
REMARK  222  A    between atoms: _538  and  _541
REMARK  223  A    between atoms: _541  and  _542
REMARK  224  A    between atoms: _542  and  _543
REMARK  225  A    between atoms: _543  and  _544
REMARK  226  A    between atoms: _553  and  _555
REMARK  227  A    between atoms: _555  and  _556
REMARK  228  A    between atoms: _555  and  _558
REMARK  229  A    between atoms: _558  and  _559
REMARK  230  A    between atoms: _559  and  _560
REMARK  231  A    between atoms: _560  and  _561
REMARK                            x       y       z     vdW  Elec       q    Type
REMARK                         _______ _______ _______ _____ _____    ______ ____
ROOT
ATOM      1  CA  ASN A   3     -22.025  -7.437  16.961  0.00  0.00    +0.158 C 
ENDROOT
BRANCH   1   4
ATOM      2  C   ILE A   2     -20.063  -8.226  18.174  0.00  0.00    +0.241 C 
ATOM      3  O   ILE A   2     -20.540  -7.907  19.264  0.00  0.00    -0.273 OA
ATOM      4  N   ASN A   3     -20.682  -8.005  17.018  0.00  0.00    -0.297 N 
ATOM      5  H   ASN A   3     -20.196  -8.243  16.130  0.00  0.00    +0.150 HD
BRANCH   2   6
ATOM      6  CA  ILE A   2     -18.702  -8.906  18.089  0.00  0.00    +0.148 C 
BRANCH   6   8
ATOM      7  C   GLY A   1     -16.562  -7.750  18.105  0.00  0.00    +0.240 C 
ATOM      8  N   ILE A   2     -17.666  -8.118  18.746  0.00  0.00    -0.297 N 
ATOM      9  H   ILE A   2     -17.794  -7.838  19.739  0.00  0.00    +0.150 HD
ATOM     10  O   GLY A   1     -16.340  -8.045  16.932  0.00  0.00    -0.274 OA
BRANCH   7  11
ATOM     11  CA  GLY A   1     -15.560  -6.938  18.899  0.00  0.00    +0.169 C 
BRANCH  11  12
ATOM     12  N   GLY A   1     -14.239  -7.531  18.814  0.00  0.00    -0.236 NA
ATOM     13  H   GLY A   1     -13.746  -7.537  17.898  0.00  0.00    +0.142 HD
ENDBRANCH  11  12
ENDBRANCH   7  11
ENDBRANCH   6   8
BRANCH   6  14
ATOM     14  CB  ILE A   2     -18.818 -10.315  18.699  0.00  0.00    +0.027 C 
ATOM     15  CG2 ILE A   2     -19.838 -11.143  17.930  0.00  0.00    +0.002 C 
BRANCH  14  16
ATOM     16  CG1 ILE A   2     -17.453 -11.008  18.715  0.00  0.00    +0.002 C 
ATOM     17  CD1 ILE A   2     -17.475 -12.389  19.339  0.00  0.00    +0.000 C 
ENDBRANCH  14  16
ENDBRANCH   6  14
ENDBRANCH   2   6
ENDBRANCH   1   4
BRANCH   1  18
ATOM     18  C   ASN A   3     -23.071  -8.525  17.146  0.00  0.00    +0.241 C 
ATOM     19  N   VAL A   4     -23.774  -8.487  18.272  0.00  0.00    -0.298 N 
ATOM     20  H   VAL A   4     -23.639  -7.697  18.934  0.00  0.00    +0.150 HD
ATOM     21  O   ASN A   3     -23.241  -9.387  16.283  0.00  0.00    -0.273 OA
BRANCH  19  22
ATOM     22  CA  VAL A   4     -24.733  -9.538  18.593  0.00  0.00    +0.137 C 
BRANCH  22  23
ATOM     23  CB  VAL A   4     -24.301 -10.333  19.851  0.00  0.00    +0.026 C 
ATOM     24  CG2 VAL A   4     -23.644  -9.417  20.868  0.00  0.00    +0.002 C 
ATOM     25  CG1 VAL A   4     -25.485 -11.073  20.455  0.00  0.00    +0.002 C 
ENDBRANCH  22  23
BRANCH  22  26
ATOM     26  C   VAL A   4     -26.170  -9.033  18.741  0.00  0.00    +0.227 C 
ATOM     27  O   VAL A   4     -27.052  -9.444  17.989  0.00  0.00    -0.286 OA
ENDBRANCH  22  26
ENDBRANCH  19  22
ENDBRANCH   1  18
BRANCH   1  28
ATOM     28  CB  ASN A   3     -22.255  -6.726  15.627  0.00  0.00    +0.114 C 
BRANCH  28  29
ATOM     29  CG  ASN A   3     -21.281  -5.588  15.393  0.00  0.00    +0.222 C 
ATOM     30  OD1 ASN A   3     -20.740  -5.011  16.336  0.00  0.00    -0.275 OA
ATOM     31  ND2 ASN A   3     -21.058  -5.257  14.127  0.00  0.00    -0.329 N 
ATOM     32 HD21 ASN A   3     -20.403  -4.482  13.900  0.00  0.00    +0.145 HD
ATOM     33 HD22 ASN A   3     -21.538  -5.773  13.362  0.00  0.00    +0.145 HD
ENDBRANCH  28  29
ENDBRANCH   1  28
TORSDOF 13
REMARK  Name = ../refined-set-2016/3efs/3efs_pocket.pdb
REMARK  231 active torsions:
REMARK  status: ('A' for Active; 'I' for Inactive)
REMARK    1  A    between atoms: _1  and  _3
REMARK    2  A    between atoms: _3  and  _4
REMARK    3  A    between atoms: _6  and  _8
REMARK    4  A    between atoms: _8  and  _9
REMARK    5  A    between atoms: _8  and  _11
REMARK    6  A    between atoms: _11  and  _12
REMARK    7  A    between atoms: _12  and  _13
REMARK    8  A    between atoms: _13  and  _14
REMARK    9  A    between atoms: _23  and  _25
REMARK   10  A    between atoms: _25  and  _26
REMARK   11  A    between atoms: _28  and  _30
REMARK   12  A    between atoms: _30  and  _31
REMARK   13  A    between atoms: _30  and  _33
REMARK   14  A    between atoms: _33  and  _34
REMARK   15  A    between atoms: _34  and  _35
REMARK   16  A    between atoms: _35  and  _36
REMARK   17  A    between atoms: _45  and  _47
REMARK   18  A    between atoms: _47  and  _48
REMARK   19  A    between atoms: _47  and  _50
REMARK   20  A    between atoms: _50  and  _51
REMARK   21  A    between atoms: _54  and  _56
REMARK   22  A    between atoms: _56  and  _57
REMARK   23  A    between atoms: _59  and  _61
REMARK   24  A    between atoms: _61  and  _62
REMARK   25  A    between atoms: _61  and  _64
REMARK   26  A    between atoms: _64  and  _65
REMARK   27  A    between atoms: _65  and  _66
REMARK   28  A    between atoms: _66  and  _67
REMARK   29  A    between atoms: _76  and  _78
REMARK   30  A    between atoms: _78  and  _79
REMARK   31  A    between atoms: _78  and  _81
REMARK   32  A    between atoms: _81  and  _82
REMARK   33  A    between atoms: _82  and  _83
REMARK   34  A    between atoms: _83  and  _84
REMARK   35  A    between atoms: _84  and  _85
REMARK   36  A    between atoms: _89  and  _91
REMARK   37  A    between atoms: _91  and  _92
REMARK   38  A    between atoms: _91  and  _94
REMARK   39  A    between atoms: _94  and  _95
REMARK   40  A    between atoms: _105  and  _107
REMARK   41  A    between atoms: _107  and  _108
REMARK   42  A    between atoms: _107  and  _110
REMARK   43  A    between atoms: _110  and  _111
REMARK   44  A    between atoms: _114  and  _116
REMARK   45  A    between atoms: _116  and  _117
REMARK   46  A    between atoms: _116  and  _119
REMARK   47  A    between atoms: _119  and  _120
REMARK   48  A    between atoms: _122  and  _124
REMARK   49  A    between atoms: _124  and  _125
REMARK   50  A    between atoms: _124  and  _127
REMARK   51  A    between atoms: _127  and  _128
REMARK   52  A    between atoms: _128  and  _129
REMARK   53  A    between atoms: _134  and  _136
REMARK   54  A    between atoms: _136  and  _137
REMARK   55  A    between atoms: _139  and  _141
REMARK   56  A    between atoms: _141  and  _142
REMARK   57  A    between atoms: _141  and  _144
REMARK   58  A    between atoms: _144  and  _145
REMARK   59  A    between atoms: _148  and  _150
REMARK   60  A    between atoms: _150  and  _151
REMARK   61  A    between atoms: _150  and  _153
REMARK   62  A    between atoms: _153  and  _154
REMARK   63  A    between atoms: _159  and  _160
REMARK   64  A    between atoms: _162  and  _164
REMARK   65  A    between atoms: _164  and  _165
REMARK   66  A    between atoms: _164  and  _167
REMARK   67  A    between atoms: _167  and  _168
REMARK   68  A    between atoms: _168  and  _169
REMARK   69  A    between atoms: _169  and  _170
REMARK   70  A    between atoms: _170  and  _171
REMARK   71  A    between atoms: _175  and  _177
REMARK   72  A    between atoms: _177  and  _178
REMARK   73  A    between atoms: _177  and  _180
REMARK   74  A    between atoms: _180  and  _181
REMARK   75  A    between atoms: _192  and  _193
REMARK   76  A    between atoms: _198  and  _200
REMARK   77  A    between atoms: _200  and  _201
REMARK   78  A    between atoms: _200  and  _203
REMARK   79  A    between atoms: _203  and  _204
REMARK   80  A    between atoms: _209  and  _211
REMARK   81  A    between atoms: _211  and  _212
REMARK   82  A    between atoms: _211  and  _214
REMARK   83  A    between atoms: _214  and  _215
REMARK   84  A    between atoms: _218  and  _220
REMARK   85  A    between atoms: _220  and  _221
REMARK   86  A    between atoms: _220  and  _223
REMARK   87  A    between atoms: _226  and  _228
REMARK   88  A    between atoms: _228  and  _229
REMARK   89  A    between atoms: _228  and  _231
REMARK   90  A    between atoms: _231  and  _232
REMARK   91  A    between atoms: _237  and  _238
REMARK   92  A    between atoms: _240  and  _242
REMARK   93  A    between atoms: _242  and  _243
REMARK   94  A    between atoms: _242  and  _245
REMARK   95  A    between atoms: _245  and  _246
REMARK   96  A    between atoms: _246  and  _247
REMARK   97  A    between atoms: _247  and  _248
REMARK   98  A    between atoms: _248  and  _249
REMARK   99  A    between atoms: _253  and  _255
REMARK  100  A    between atoms: _255  and  _256
REMARK  101  A    between atoms: _255  and  _258
REMARK  102  A    between atoms: _258  and  _259
REMARK  103  A    between atoms: _259  and  _260
REMARK  104  A    between atoms: _260  and  _261
REMARK  105  A    between atoms: _261  and  _262
REMARK  106  A    between atoms: _266  and  _268
REMARK  107  A    between atoms: _268  and  _269
REMARK  108  A    between atoms: _268  and  _271
REMARK  109  A    between atoms: _274  and  _276
REMARK  110  A    between atoms: _276  and  _277
REMARK  111  A    between atoms: _276  and  _279
REMARK  112  A    between atoms: _279  and  _280
REMARK  113  A    between atoms: _282  and  _284
REMARK  114  A    between atoms: _284  and  _285
REMARK  115  A    between atoms: _287  and  _289
REMARK  116  A    between atoms: _289  and  _290
REMARK  117  A    between atoms: _289  and  _292
REMARK  118  A    between atoms: _295  and  _297
REMARK  119  A    between atoms: _297  and  _298
REMARK  120  A    between atoms: _297  and  _300
REMARK  121  A    between atoms: _300  and  _301
REMARK  122  A    between atoms: _304  and  _306
REMARK  123  A    between atoms: _306  and  _307
REMARK  124  A    between atoms: _309  and  _311
REMARK  125  A    between atoms: _311  and  _312
REMARK  126  A    between atoms: _311  and  _314
REMARK  127  A    between atoms: _314  and  _315
REMARK  128  A    between atoms: _318  and  _320
REMARK  129  A    between atoms: _320  and  _321
REMARK  130  A    between atoms: _320  and  _323
REMARK  131  A    between atoms: _323  and  _324
REMARK  132  A    between atoms: _329  and  _331
REMARK  133  A    between atoms: _331  and  _332
REMARK  134  A    between atoms: _331  and  _334
REMARK  135  A    between atoms: _337  and  _339
REMARK  136  A    between atoms: _339  and  _340
REMARK  137  A    between atoms: _339  and  _342
REMARK  138  A    between atoms: _342  and  _343
REMARK  139  A    between atoms: _343  and  _344
REMARK  140  A    between atoms: _349  and  _351
REMARK  141  A    between atoms: _351  and  _352
REMARK  142  A    between atoms: _351  and  _354
REMARK  143  A    between atoms: _354  and  _355
REMARK  144  A    between atoms: _359  and  _360
REMARK  145  A    between atoms: _365  and  _367
REMARK  146  A    between atoms: _367  and  _368
REMARK  147  A    between atoms: _367  and  _370
REMARK  148  A    between atoms: _370  and  _371
REMARK  149  A    between atoms: _371  and  _372
REMARK  150  A    between atoms: _375  and  _377
REMARK  151  A    between atoms: _377  and  _378
REMARK  152  A    between atoms: _377  and  _380
REMARK  153  A    between atoms: _380  and  _381
REMARK  154  A    between atoms: _384  and  _386
REMARK  155  A    between atoms: _386  and  _387
REMARK  156  A    between atoms: _386  and  _389
REMARK  157  A    between atoms: _389  and  _390
REMARK  158  A    between atoms: _390  and  _391
REMARK  159  A    between atoms: _391  and  _392
REMARK  160  A    between atoms: _392  and  _393
REMARK  161  A    between atoms: _397  and  _399
REMARK  162  A    between atoms: _399  and  _400
REMARK  163  A    between atoms: _399  and  _402
REMARK  164  A    between atoms: _402  and  _403
REMARK  165  A    between atoms: _406  and  _408
REMARK  166  A    between atoms: _408  and  _409
REMARK  167  A    between atoms: _408  and  _411
REMARK  168  A    between atoms: _411  and  _412
REMARK  169  A    between atoms: _412  and  _413
REMARK  170  A    between atoms: _413  and  _414
REMARK  171  A    between atoms: _423  and  _425
REMARK  172  A    between atoms: _425  and  _426
REMARK  173  A    between atoms: _429  and  _431
REMARK  174  A    between atoms: _431  and  _432
REMARK  175  A    between atoms: _431  and  _434
REMARK  176  A    between atoms: _434  and  _435
REMARK  177  A    between atoms: _438  and  _440
REMARK  178  A    between atoms: _440  and  _441
REMARK  179  A    between atoms: _440  and  _443
REMARK  180  A    between atoms: _443  and  _444
REMARK  181  A    between atoms: _447  and  _449
REMARK  182  A    between atoms: _449  and  _450
REMARK  183  A    between atoms: _449  and  _452
REMARK  184  A    between atoms: _452  and  _453
REMARK  185  A    between atoms: _456  and  _458
REMARK  186  A    between atoms: _458  and  _459
REMARK  187  A    between atoms: _458  and  _461
REMARK  188  A    between atoms: _461  and  _462
REMARK  189  A    between atoms: _467  and  _468
REMARK  190  A    between atoms: _470  and  _472
REMARK  191  A    between atoms: _472  and  _473
REMARK  192  A    between atoms: _472  and  _475
REMARK  193  A    between atoms: _475  and  _476
REMARK  194  A    between atoms: _476  and  _477
REMARK  195  A    between atoms: _477  and  _478
REMARK  196  A    between atoms: _478  and  _479
REMARK  197  A    between atoms: _483  and  _485
REMARK  198  A    between atoms: _485  and  _486
REMARK  199  A    between atoms: _485  and  _488
REMARK  200  A    between atoms: _488  and  _489
REMARK  201  A    between atoms: _492  and  _494
REMARK  202  A    between atoms: _494  and  _495
REMARK  203  A    between atoms: _497  and  _499
REMARK  204  A    between atoms: _499  and  _500
REMARK  205  A    between atoms: _499  and  _502
REMARK  206  A    between atoms: _502  and  _503
REMARK  207  A    between atoms: _503  and  _504
REMARK  208  A    between atoms: _507  and  _509
REMARK  209  A    between atoms: _509  and  _510
REMARK  210  A    between atoms: _509  and  _512
REMARK  211  A    between atoms: _512  and  _513
REMARK  212  A    between atoms: _519  and  _521
REMARK  213  A    between atoms: _521  and  _522
REMARK  214  A    between atoms: _521  and  _524
REMARK  215  A    between atoms: _524  and  _525
REMARK  216  A    between atoms: _527  and  _529
REMARK  217  A    between atoms: _529  and  _530
REMARK  218  A    between atoms: _529  and  _532
REMARK  219  A    between atoms: _532  and  _533
REMARK  220  A    between atoms: _536  and  _538
REMARK  221  A    between atoms: _538  and  _539
REMARK  222  A    between atoms: _538  and  _541
REMARK  223  A    between atoms: _541  and  _542
REMARK  224  A    between atoms: _542  and  _543
REMARK  225  A    between atoms: _543  and  _544
REMARK  226  A    between atoms: _553  and  _555
REMARK  227  A    between atoms: _555  and  _556
REMARK  228  A    between atoms: _555  and  _558
REMARK  229  A    between atoms: _558  and  _559
REMARK  230  A    between atoms: _559  and  _560
REMARK  231  A    between atoms: _560  and  _561
REMARK                            x       y       z     vdW  Elec       q    Type
REMARK                         _______ _______ _______ _____ _____    ______ ____
ROOT
ATOM      1  CB  GLN A   1     -26.214  -3.501  17.969  0.00  0.00    +0.035 C 
ENDROOT
BRANCH   1   2
ATOM      2  CA  GLN A   1     -27.384  -4.103  18.751  0.00  0.00    +0.134 C 
BRANCH   2   3
ATOM      3  N   GLN A   1     -27.169  -5.519  19.031  0.00  0.00    -0.239 NA
ATOM      4  H   GLN A   1     -26.351  -6.009  18.615  0.00  0.00    +0.142 HD
ENDBRANCH   2   3
BRANCH   2   5
ATOM      5  C   GLN A   1     -28.685  -3.904  17.979  0.00  0.00    +0.224 C 
ATOM      6  O   GLN A   1     -28.832  -4.388  16.857  0.00  0.00    -0.287 OA
ENDBRANCH   2   5
ENDBRANCH   1   2
BRANCH   1   7
ATOM      7  CG  GLN A   1     -24.966  -3.229  18.797  0.00  0.00    +0.087 C 
BRANCH   7   8
ATOM      8  CD  GLN A   1     -23.955  -4.354  18.721  0.00  0.00    +0.219 C 
ATOM      9  OE1 GLN A   1     -22.747  -4.120  18.755  0.00  0.00    -0.275 OA
ATOM     10  NE2 GLN A   1     -24.443  -5.583  18.606  0.00  0.00    -0.329 N 
ATOM     11 HE21 GLN A   1     -25.472  -5.734  18.581  0.00  0.00    +0.145 HD
ATOM     12 HE22 GLN A   1     -23.797  -6.395  18.541  0.00  0.00    +0.145 HD
ENDBRANCH   7   8
ENDBRANCH   1   7
TORSDOF 5
REMARK  Name = ../refined-set-2016/3efs/3efs_pocket.pdb
REMARK  231 active torsions:
REMARK  status: ('A' for Active; 'I' for Inactive)
REMARK    1  A    between atoms: _1  and  _3
REMARK    2  A    between atoms: _3  and  _4
REMARK    3  A    between atoms: _6  and  _8
REMARK    4  A    between atoms: _8  and  _9
REMARK    5  A    between atoms: _8  and  _11
REMARK    6  A    between atoms: _11  and  _12
REMARK    7  A    between atoms: _12  and  _13
REMARK    8  A    between atoms: _13  and  _14
REMARK    9  A    between atoms: _23  and  _25
REMARK   10  A    between atoms: _25  and  _26
REMARK   11  A    between atoms: _28  and  _30
REMARK   12  A    between atoms: _30  and  _31
REMARK   13  A    between atoms: _30  and  _33
REMARK   14  A    between atoms: _33  and  _34
REMARK   15  A    between atoms: _34  and  _35
REMARK   16  A    between atoms: _35  and  _36
REMARK   17  A    between atoms: _45  and  _47
REMARK   18  A    between atoms: _47  and  _48
REMARK   19  A    between atoms: _47  and  _50
REMARK   20  A    between atoms: _50  and  _51
REMARK   21  A    between atoms: _54  and  _56
REMARK   22  A    between atoms: _56  and  _57
REMARK   23  A    between atoms: _59  and  _61
REMARK   24  A    between atoms: _61  and  _62
REMARK   25  A    between atoms: _61  and  _64
REMARK   26  A    between atoms: _64  and  _65
REMARK   27  A    between atoms: _65  and  _66
REMARK   28  A    between atoms: _66  and  _67
REMARK   29  A    between atoms: _76  and  _78
REMARK   30  A    between atoms: _78  and  _79
REMARK   31  A    between atoms: _78  and  _81
REMARK   32  A    between atoms: _81  and  _82
REMARK   33  A    between atoms: _82  and  _83
REMARK   34  A    between atoms: _83  and  _84
REMARK   35  A    between atoms: _84  and  _85
REMARK   36  A    between atoms: _89  and  _91
REMARK   37  A    between atoms: _91  and  _92
REMARK   38  A    between atoms: _91  and  _94
REMARK   39  A    between atoms: _94  and  _95
REMARK   40  A    between atoms: _105  and  _107
REMARK   41  A    between atoms: _107  and  _108
REMARK   42  A    between atoms: _107  and  _110
REMARK   43  A    between atoms: _110  and  _111
REMARK   44  A    between atoms: _114  and  _116
REMARK   45  A    between atoms: _116  and  _117
REMARK   46  A    between atoms: _116  and  _119
REMARK   47  A    between atoms: _119  and  _120
REMARK   48  A    between atoms: _122  and  _124
REMARK   49  A    between atoms: _124  and  _125
REMARK   50  A    between atoms: _124  and  _127
REMARK   51  A    between atoms: _127  and  _128
REMARK   52  A    between atoms: _128  and  _129
REMARK   53  A    between atoms: _134  and  _136
REMARK   54  A    between atoms: _136  and  _137
REMARK   55  A    between atoms: _139  and  _141
REMARK   56  A    between atoms: _141  and  _142
REMARK   57  A    between atoms: _141  and  _144
REMARK   58  A    between atoms: _144  and  _145
REMARK   59  A    between atoms: _148  and  _150
REMARK   60  A    between atoms: _150  and  _151
REMARK   61  A    between atoms: _150  and  _153
REMARK   62  A    between atoms: _153  and  _154
REMARK   63  A    between atoms: _159  and  _160
REMARK   64  A    between atoms: _162  and  _164
REMARK   65  A    between atoms: _164  and  _165
REMARK   66  A    between atoms: _164  and  _167
REMARK   67  A    between atoms: _167  and  _168
REMARK   68  A    between atoms: _168  and  _169
REMARK   69  A    between atoms: _169  and  _170
REMARK   70  A    between atoms: _170  and  _171
REMARK   71  A    between atoms: _175  and  _177
REMARK   72  A    between atoms: _177  and  _178
REMARK   73  A    between atoms: _177  and  _180
REMARK   74  A    between atoms: _180  and  _181
REMARK   75  A    between atoms: _192  and  _193
REMARK   76  A    between atoms: _198  and  _200
REMARK   77  A    between atoms: _200  and  _201
REMARK   78  A    between atoms: _200  and  _203
REMARK   79  A    between atoms: _203  and  _204
REMARK   80  A    between atoms: _209  and  _211
REMARK   81  A    between atoms: _211  and  _212
REMARK   82  A    between atoms: _211  and  _214
REMARK   83  A    between atoms: _214  and  _215
REMARK   84  A    between atoms: _218  and  _220
REMARK   85  A    between atoms: _220  and  _221
REMARK   86  A    between atoms: _220  and  _223
REMARK   87  A    between atoms: _226  and  _228
REMARK   88  A    between atoms: _228  and  _229
REMARK   89  A    between atoms: _228  and  _231
REMARK   90  A    between atoms: _231  and  _232
REMARK   91  A    between atoms: _237  and  _238
REMARK   92  A    between atoms: _240  and  _242
REMARK   93  A    between atoms: _242  and  _243
REMARK   94  A    between atoms: _242  and  _245
REMARK   95  A    between atoms: _245  and  _246
REMARK   96  A    between atoms: _246  and  _247
REMARK   97  A    between atoms: _247  and  _248
REMARK   98  A    between atoms: _248  and  _249
REMARK   99  A    between atoms: _253  and  _255
REMARK  100  A    between atoms: _255  and  _256
REMARK  101  A    between atoms: _255  and  _258
REMARK  102  A    between atoms: _258  and  _259
REMARK  103  A    between atoms: _259  and  _260
REMARK  104  A    between atoms: _260  and  _261
REMARK  105  A    between atoms: _261  and  _262
REMARK  106  A    between atoms: _266  and  _268
REMARK  107  A    between atoms: _268  and  _269
REMARK  108  A    between atoms: _268  and  _271
REMARK  109  A    between atoms: _274  and  _276
REMARK  110  A    between atoms: _276  and  _277
REMARK  111  A    between atoms: _276  and  _279
REMARK  112  A    between atoms: _279  and  _280
REMARK  113  A    between atoms: _282  and  _284
REMARK  114  A    between atoms: _284  and  _285
REMARK  115  A    between atoms: _287  and  _289
REMARK  116  A    between atoms: _289  and  _290
REMARK  117  A    between atoms: _289  and  _292
REMARK  118  A    between atoms: _295  and  _297
REMARK  119  A    between atoms: _297  and  _298
REMARK  120  A    between atoms: _297  and  _300
REMARK  121  A    between atoms: _300  and  _301
REMARK  122  A    between atoms: _304  and  _306
REMARK  123  A    between atoms: _306  and  _307
REMARK  124  A    between atoms: _309  and  _311
REMARK  125  A    between atoms: _311  and  _312
REMARK  126  A    between atoms: _311  and  _314
REMARK  127  A    between atoms: _314  and  _315
REMARK  128  A    between atoms: _318  and  _320
REMARK  129  A    between atoms: _320  and  _321
REMARK  130  A    between atoms: _320  and  _323
REMARK  131  A    between atoms: _323  and  _324
REMARK  132  A    between atoms: _329  and  _331
REMARK  133  A    between atoms: _331  and  _332
REMARK  134  A    between atoms: _331  and  _334
REMARK  135  A    between atoms: _337  and  _339
REMARK  136  A    between atoms: _339  and  _340
REMARK  137  A    between atoms: _339  and  _342
REMARK  138  A    between atoms: _342  and  _343
REMARK  139  A    between atoms: _343  and  _344
REMARK  140  A    between atoms: _349  and  _351
REMARK  141  A    between atoms: _351  and  _352
REMARK  142  A    between atoms: _351  and  _354
REMARK  143  A    between atoms: _354  and  _355
REMARK  144  A    between atoms: _359  and  _360
REMARK  145  A    between atoms: _365  and  _367
REMARK  146  A    between atoms: _367  and  _368
REMARK  147  A    between atoms: _367  and  _370
REMARK  148  A    between atoms: _370  and  _371
REMARK  149  A    between atoms: _371  and  _372
REMARK  150  A    between atoms: _375  and  _377
REMARK  151  A    between atoms: _377  and  _378
REMARK  152  A    between atoms: _377  and  _380
REMARK  153  A    between atoms: _380  and  _381
REMARK  154  A    between atoms: _384  and  _386
REMARK  155  A    between atoms: _386  and  _387
REMARK  156  A    between atoms: _386  and  _389
REMARK  157  A    between atoms: _389  and  _390
REMARK  158  A    between atoms: _390  and  _391
REMARK  159  A    between atoms: _391  and  _392
REMARK  160  A    between atoms: _392  and  _393
REMARK  161  A    between atoms: _397  and  _399
REMARK  162  A    between atoms: _399  and  _400
REMARK  163  A    between atoms: _399  and  _402
REMARK  164  A    between atoms: _402  and  _403
REMARK  165  A    between atoms: _406  and  _408
REMARK  166  A    between atoms: _408  and  _409
REMARK  167  A    between atoms: _408  and  _411
REMARK  168  A    between atoms: _411  and  _412
REMARK  169  A    between atoms: _412  and  _413
REMARK  170  A    between atoms: _413  and  _414
REMARK  171  A    between atoms: _423  and  _425
REMARK  172  A    between atoms: _425  and  _426
REMARK  173  A    between atoms: _429  and  _431
REMARK  174  A    between atoms: _431  and  _432
REMARK  175  A    between atoms: _431  and  _434
REMARK  176  A    between atoms: _434  and  _435
REMARK  177  A    between atoms: _438  and  _440
REMARK  178  A    between atoms: _440  and  _441
REMARK  179  A    between atoms: _440  and  _443
REMARK  180  A    between atoms: _443  and  _444
REMARK  181  A    between atoms: _447  and  _449
REMARK  182  A    between atoms: _449  and  _450
REMARK  183  A    between atoms: _449  and  _452
REMARK  184  A    between atoms: _452  and  _453
REMARK  185  A    between atoms: _456  and  _458
REMARK  186  A    between atoms: _458  and  _459
REMARK  187  A    between atoms: _458  and  _461
REMARK  188  A    between atoms: _461  and  _462
REMARK  189  A    between atoms: _467  and  _468
REMARK  190  A    between atoms: _470  and  _472
REMARK  191  A    between atoms: _472  and  _473
REMARK  192  A    between atoms: _472  and  _475
REMARK  193  A    between atoms: _475  and  _476
REMARK  194  A    between atoms: _476  and  _477
REMARK  195  A    between atoms: _477  and  _478
REMARK  196  A    between atoms: _478  and  _479
REMARK  197  A    between atoms: _483  and  _485
REMARK  198  A    between atoms: _485  and  _486
REMARK  199  A    between atoms: _485  and  _488
REMARK  200  A    between atoms: _488  and  _489
REMARK  201  A    between atoms: _492  and  _494
REMARK  202  A    between atoms: _494  and  _495
REMARK  203  A    between atoms: _497  and  _499
REMARK  204  A    between atoms: _499  and  _500
REMARK  205  A    between atoms: _499  and  _502
REMARK  206  A    between atoms: _502  and  _503
REMARK  207  A    between atoms: _503  and  _504
REMARK  208  A    between atoms: _507  and  _509
REMARK  209  A    between atoms: _509  and  _510
REMARK  210  A    between atoms: _509  and  _512
REMARK  211  A    between atoms: _512  and  _513
REMARK  212  A    between atoms: _519  and  _521
REMARK  213  A    between atoms: _521  and  _522
REMARK  214  A    between atoms: _521  and  _524
REMARK  215  A    between atoms: _524  and  _525
REMARK  216  A    between atoms: _527  and  _529
REMARK  217  A    between atoms: _529  and  _530
REMARK  218  A    between atoms: _529  and  _532
REMARK  219  A    between atoms: _532  and  _533
REMARK  220  A    between atoms: _536  and  _538
REMARK  221  A    between atoms: _538  and  _539
REMARK  222  A    between atoms: _538  and  _541
REMARK  223  A    between atoms: _541  and  _542
REMARK  224  A    between atoms: _542  and  _543
REMARK  225  A    between atoms: _543  and  _544
REMARK  226  A    between atoms: _553  and  _555
REMARK  227  A    between atoms: _555  and  _556
REMARK  228  A    between atoms: _555  and  _558
REMARK  229  A    between atoms: _558  and  _559
REMARK  230  A    between atoms: _559  and  _560
REMARK  231  A    between atoms: _560  and  _561
REMARK                            x       y       z     vdW  Elec       q    Type
REMARK                         _______ _______ _______ _____ _____    ______ ____
ROOT
ATOM      1  C   ILE A   1     -27.200   1.796  13.110  0.00  0.00    +0.241 C 
ATOM      2  N   PRO A   2     -26.094   2.507  13.374  0.00  0.00    -0.273 N 
ATOM      3  CD  PRO A   2     -25.078   2.133  14.372  0.00  0.00    +0.094 C 
ATOM      4  CG  PRO A   2     -24.332   3.411  14.584  0.00  0.00    +0.024 C 
ATOM      5  CB  PRO A   2     -24.393   4.125  13.275  0.00  0.00    +0.030 C 
ATOM      6  CA  PRO A   2     -25.773   3.777  12.711  0.00  0.00    +0.140 C 
ATOM      7  O   ILE A   1     -28.036   2.151  12.279  0.00  0.00    -0.273 OA
ENDROOT
BRANCH   6   8
ATOM      8  C   PRO A   2     -25.696   3.633  11.194  0.00  0.00    +0.227 C 
ATOM      9  O   PRO A   2     -25.219   2.616  10.694  0.00  0.00    -0.286 OA
ENDBRANCH   6   8
BRANCH   1  10
ATOM     10  CA  ILE A   1     -27.389   0.500  13.894  0.00  0.00    +0.145 C 
BRANCH  10  11
ATOM     11  N   ILE A   1     -28.678   0.463  14.577  0.00  0.00    -0.238 NA
ATOM     12  H   ILE A   1     -29.548   0.372  14.015  0.00  0.00    +0.142 HD
ENDBRANCH  10  11
BRANCH  10  13
ATOM     13  CB  ILE A   1     -27.229  -0.689  12.934  0.00  0.00    +0.025 C 
ATOM     14  CG2 ILE A   1     -25.826  -0.714  12.348  0.00  0.00    +0.002 C 
BRANCH  13  15
ATOM     15  CG1 ILE A   1     -27.542  -2.002  13.653  0.00  0.00    +0.002 C 
ATOM     16  CD1 ILE A   1     -27.469  -3.221  12.754  0.00  0.00    +0.000 C 
ENDBRANCH  13  15
ENDBRANCH  10  13
ENDBRANCH   1  10
TORSDOF 5
REMARK  Name = ../refined-set-2016/3efs/3efs_pocket.pdb
REMARK  231 active torsions:
REMARK  status: ('A' for Active; 'I' for Inactive)
REMARK    1  A    between atoms: _1  and  _3
REMARK    2  A    between atoms: _3  and  _4
REMARK    3  A    between atoms: _6  and  _8
REMARK    4  A    between atoms: _8  and  _9
REMARK    5  A    between atoms: _8  and  _11
REMARK    6  A    between atoms: _11  and  _12
REMARK    7  A    between atoms: _12  and  _13
REMARK    8  A    between atoms: _13  and  _14
REMARK    9  A    between atoms: _23  and  _25
REMARK   10  A    between atoms: _25  and  _26
REMARK   11  A    between atoms: _28  and  _30
REMARK   12  A    between atoms: _30  and  _31
REMARK   13  A    between atoms: _30  and  _33
REMARK   14  A    between atoms: _33  and  _34
REMARK   15  A    between atoms: _34  and  _35
REMARK   16  A    between atoms: _35  and  _36
REMARK   17  A    between atoms: _45  and  _47
REMARK   18  A    between atoms: _47  and  _48
REMARK   19  A    between atoms: _47  and  _50
REMARK   20  A    between atoms: _50  and  _51
REMARK   21  A    between atoms: _54  and  _56
REMARK   22  A    between atoms: _56  and  _57
REMARK   23  A    between atoms: _59  and  _61
REMARK   24  A    between atoms: _61  and  _62
REMARK   25  A    between atoms: _61  and  _64
REMARK   26  A    between atoms: _64  and  _65
REMARK   27  A    between atoms: _65  and  _66
REMARK   28  A    between atoms: _66  and  _67
REMARK   29  A    between atoms: _76  and  _78
REMARK   30  A    between atoms: _78  and  _79
REMARK   31  A    between atoms: _78  and  _81
REMARK   32  A    between atoms: _81  and  _82
REMARK   33  A    between atoms: _82  and  _83
REMARK   34  A    between atoms: _83  and  _84
REMARK   35  A    between atoms: _84  and  _85
REMARK   36  A    between atoms: _89  and  _91
REMARK   37  A    between atoms: _91  and  _92
REMARK   38  A    between atoms: _91  and  _94
REMARK   39  A    between atoms: _94  and  _95
REMARK   40  A    between atoms: _105  and  _107
REMARK   41  A    between atoms: _107  and  _108
REMARK   42  A    between atoms: _107  and  _110
REMARK   43  A    between atoms: _110  and  _111
REMARK   44  A    between atoms: _114  and  _116
REMARK   45  A    between atoms: _116  and  _117
REMARK   46  A    between atoms: _116  and  _119
REMARK   47  A    between atoms: _119  and  _120
REMARK   48  A    between atoms: _122  and  _124
REMARK   49  A    between atoms: _124  and  _125
REMARK   50  A    between atoms: _124  and  _127
REMARK   51  A    between atoms: _127  and  _128
REMARK   52  A    between atoms: _128  and  _129
REMARK   53  A    between atoms: _134  and  _136
REMARK   54  A    between atoms: _136  and  _137
REMARK   55  A    between atoms: _139  and  _141
REMARK   56  A    between atoms: _141  and  _142
REMARK   57  A    between atoms: _141  and  _144
REMARK   58  A    between atoms: _144  and  _145
REMARK   59  A    between atoms: _148  and  _150
REMARK   60  A    between atoms: _150  and  _151
REMARK   61  A    between atoms: _150  and  _153
REMARK   62  A    between atoms: _153  and  _154
REMARK   63  A    between atoms: _159  and  _160
REMARK   64  A    between atoms: _162  and  _164
REMARK   65  A    between atoms: _164  and  _165
REMARK   66  A    between atoms: _164  and  _167
REMARK   67  A    between atoms: _167  and  _168
REMARK   68  A    between atoms: _168  and  _169
REMARK   69  A    between atoms: _169  and  _170
REMARK   70  A    between atoms: _170  and  _171
REMARK   71  A    between atoms: _175  and  _177
REMARK   72  A    between atoms: _177  and  _178
REMARK   73  A    between atoms: _177  and  _180
REMARK   74  A    between atoms: _180  and  _181
REMARK   75  A    between atoms: _192  and  _193
REMARK   76  A    between atoms: _198  and  _200
REMARK   77  A    between atoms: _200  and  _201
REMARK   78  A    between atoms: _200  and  _203
REMARK   79  A    between atoms: _203  and  _204
REMARK   80  A    between atoms: _209  and  _211
REMARK   81  A    between atoms: _211  and  _212
REMARK   82  A    between atoms: _211  and  _214
REMARK   83  A    between atoms: _214  and  _215
REMARK   84  A    between atoms: _218  and  _220
REMARK   85  A    between atoms: _220  and  _221
REMARK   86  A    between atoms: _220  and  _223
REMARK   87  A    between atoms: _226  and  _228
REMARK   88  A    between atoms: _228  and  _229
REMARK   89  A    between atoms: _228  and  _231
REMARK   90  A    between atoms: _231  and  _232
REMARK   91  A    between atoms: _237  and  _238
REMARK   92  A    between atoms: _240  and  _242
REMARK   93  A    between atoms: _242  and  _243
REMARK   94  A    between atoms: _242  and  _245
REMARK   95  A    between atoms: _245  and  _246
REMARK   96  A    between atoms: _246  and  _247
REMARK   97  A    between atoms: _247  and  _248
REMARK   98  A    between atoms: _248  and  _249
REMARK   99  A    between atoms: _253  and  _255
REMARK  100  A    between atoms: _255  and  _256
REMARK  101  A    between atoms: _255  and  _258
REMARK  102  A    between atoms: _258  and  _259
REMARK  103  A    between atoms: _259  and  _260
REMARK  104  A    between atoms: _260  and  _261
REMARK  105  A    between atoms: _261  and  _262
REMARK  106  A    between atoms: _266  and  _268
REMARK  107  A    between atoms: _268  and  _269
REMARK  108  A    between atoms: _268  and  _271
REMARK  109  A    between atoms: _274  and  _276
REMARK  110  A    between atoms: _276  and  _277
REMARK  111  A    between atoms: _276  and  _279
REMARK  112  A    between atoms: _279  and  _280
REMARK  113  A    between atoms: _282  and  _284
REMARK  114  A    between atoms: _284  and  _285
REMARK  115  A    between atoms: _287  and  _289
REMARK  116  A    between atoms: _289  and  _290
REMARK  117  A    between atoms: _289  and  _292
REMARK  118  A    between atoms: _295  and  _297
REMARK  119  A    between atoms: _297  and  _298
REMARK  120  A    between atoms: _297  and  _300
REMARK  121  A    between atoms: _300  and  _301
REMARK  122  A    between atoms: _304  and  _306
REMARK  123  A    between atoms: _306  and  _307
REMARK  124  A    between atoms: _309  and  _311
REMARK  125  A    between atoms: _311  and  _312
REMARK  126  A    between atoms: _311  and  _314
REMARK  127  A    between atoms: _314  and  _315
REMARK  128  A    between atoms: _318  and  _320
REMARK  129  A    between atoms: _320  and  _321
REMARK  130  A    between atoms: _320  and  _323
REMARK  131  A    between atoms: _323  and  _324
REMARK  132  A    between atoms: _329  and  _331
REMARK  133  A    between atoms: _331  and  _332
REMARK  134  A    between atoms: _331  and  _334
REMARK  135  A    between atoms: _337  and  _339
REMARK  136  A    between atoms: _339  and  _340
REMARK  137  A    between atoms: _339  and  _342
REMARK  138  A    between atoms: _342  and  _343
REMARK  139  A    between atoms: _343  and  _344
REMARK  140  A    between atoms: _349  and  _351
REMARK  141  A    between atoms: _351  and  _352
REMARK  142  A    between atoms: _351  and  _354
REMARK  143  A    between atoms: _354  and  _355
REMARK  144  A    between atoms: _359  and  _360
REMARK  145  A    between atoms: _365  and  _367
REMARK  146  A    between atoms: _367  and  _368
REMARK  147  A    between atoms: _367  and  _370
REMARK  148  A    between atoms: _370  and  _371
REMARK  149  A    between atoms: _371  and  _372
REMARK  150  A    between atoms: _375  and  _377
REMARK  151  A    between atoms: _377  and  _378
REMARK  152  A    between atoms: _377  and  _380
REMARK  153  A    between atoms: _380  and  _381
REMARK  154  A    between atoms: _384  and  _386
REMARK  155  A    between atoms: _386  and  _387
REMARK  156  A    between atoms: _386  and  _389
REMARK  157  A    between atoms: _389  and  _390
REMARK  158  A    between atoms: _390  and  _391
REMARK  159  A    between atoms: _391  and  _392
REMARK  160  A    between atoms: _392  and  _393
REMARK  161  A    between atoms: _397  and  _399
REMARK  162  A    between atoms: _399  and  _400
REMARK  163  A    between atoms: _399  and  _402
REMARK  164  A    between atoms: _402  and  _403
REMARK  165  A    between atoms: _406  and  _408
REMARK  166  A    between atoms: _408  and  _409
REMARK  167  A    between atoms: _408  and  _411
REMARK  168  A    between atoms: _411  and  _412
REMARK  169  A    between atoms: _412  and  _413
REMARK  170  A    between atoms: _413  and  _414
REMARK  171  A    between atoms: _423  and  _425
REMARK  172  A    between atoms: _425  and  _426
REMARK  173  A    between atoms: _429  and  _431
REMARK  174  A    between atoms: _431  and  _432
REMARK  175  A    between atoms: _431  and  _434
REMARK  176  A    between atoms: _434  and  _435
REMARK  177  A    between atoms: _438  and  _440
REMARK  178  A    between atoms: _440  and  _441
REMARK  179  A    between atoms: _440  and  _443
REMARK  180  A    between atoms: _443  and  _444
REMARK  181  A    between atoms: _447  and  _449
REMARK  182  A    between atoms: _449  and  _450
REMARK  183  A    between atoms: _449  and  _452
REMARK  184  A    between atoms: _452  and  _453
REMARK  185  A    between atoms: _456  and  _458
REMARK  186  A    between atoms: _458  and  _459
REMARK  187  A    between atoms: _458  and  _461
REMARK  188  A    between atoms: _461  and  _462
REMARK  189  A    between atoms: _467  and  _468
REMARK  190  A    between atoms: _470  and  _472
REMARK  191  A    between atoms: _472  and  _473
REMARK  192  A    between atoms: _472  and  _475
REMARK  193  A    between atoms: _475  and  _476
REMARK  194  A    between atoms: _476  and  _477
REMARK  195  A    between atoms: _477  and  _478
REMARK  196  A    between atoms: _478  and  _479
REMARK  197  A    between atoms: _483  and  _485
REMARK  198  A    between atoms: _485  and  _486
REMARK  199  A    between atoms: _485  and  _488
REMARK  200  A    between atoms: _488  and  _489
REMARK  201  A    between atoms: _492  and  _494
REMARK  202  A    between atoms: _494  and  _495
REMARK  203  A    between atoms: _497  and  _499
REMARK  204  A    between atoms: _499  and  _500
REMARK  205  A    between atoms: _499  and  _502
REMARK  206  A    between atoms: _502  and  _503
REMARK  207  A    between atoms: _503  and  _504
REMARK  208  A    between atoms: _507  and  _509
REMARK  209  A    between atoms: _509  and  _510
REMARK  210  A    between atoms: _509  and  _512
REMARK  211  A    between atoms: _512  and  _513
REMARK  212  A    between atoms: _519  and  _521
REMARK  213  A    between atoms: _521  and  _522
REMARK  214  A    between atoms: _521  and  _524
REMARK  215  A    between atoms: _524  and  _525
REMARK  216  A    between atoms: _527  and  _529
REMARK  217  A    between atoms: _529  and  _530
REMARK  218  A    between atoms: _529  and  _532
REMARK  219  A    between atoms: _532  and  _533
REMARK  220  A    between atoms: _536  and  _538
REMARK  221  A    between atoms: _538  and  _539
REMARK  222  A    between atoms: _538  and  _541
REMARK  223  A    between atoms: _541  and  _542
REMARK  224  A    between atoms: _542  and  _543
REMARK  225  A    between atoms: _543  and  _544
REMARK  226  A    between atoms: _553  and  _555
REMARK  227  A    between atoms: _555  and  _556
REMARK  228  A    between atoms: _555  and  _558
REMARK  229  A    between atoms: _558  and  _559
REMARK  230  A    between atoms: _559  and  _560
REMARK  231  A    between atoms: _560  and  _561
REMARK                            x       y       z     vdW  Elec       q    Type
REMARK                         _______ _______ _______ _____ _____    ______ ____
ROOT
ATOM      1  C   ASP A   4     -22.654  -1.577   4.662  0.00  0.00    +0.241 C 
ATOM      2  N   ARG A   5     -21.870  -1.631   5.735  0.00  0.00    -0.297 N 
ATOM      3  H   ARG A   5     -22.057  -0.997   6.538  0.00  0.00    +0.150 HD
ATOM      4  O   ASP A   4     -22.512  -2.328   3.698  0.00  0.00    -0.273 OA
ENDROOT
BRANCH   2   5
ATOM      5  CA  ARG A   5     -20.752  -2.565   5.803  0.00  0.00    +0.149 C 
BRANCH   5   6
ATOM      6  C   ARG A   5     -20.716  -3.328   7.123  0.00  0.00    +0.241 C 
ATOM      7  N   ALA A   6     -21.828  -3.322   7.850  0.00  0.00    -0.297 N 
ATOM      8  H   ALA A   6     -22.680  -2.855   7.480  0.00  0.00    +0.150 HD
ATOM      9  O   ARG A   5     -19.693  -3.912   7.477  0.00  0.00    -0.273 OA
BRANCH   7  10
ATOM     10  CA  ALA A   6     -21.869  -3.962   9.160  0.00  0.00    +0.149 C 
ATOM     11  CB  ALA A   6     -21.352  -3.014  10.230  0.00  0.00    +0.031 C 
BRANCH  10  12
ATOM     12  C   ALA A   6     -23.264  -4.456   9.520  0.00  0.00    +0.241 C 
ATOM     13  N   THR A   7     -23.317  -5.607  10.180  0.00  0.00    -0.295 N 
ATOM     14  H   THR A   7     -22.433  -6.121  10.372  0.00  0.00    +0.150 HD
ATOM     15  O   ALA A   6     -24.266  -3.811   9.209  0.00  0.00    -0.273 OA
BRANCH  13  16
ATOM     16  CA  THR A   7     -24.578  -6.170  10.643  0.00  0.00    +0.176 C 
BRANCH  16  17
ATOM     17  C   THR A   7     -24.382  -6.849  11.992  0.00  0.00    +0.243 C 
ATOM     18  N   THR A   8     -25.486  -7.218  12.632  0.00  0.00    -0.296 N 
ATOM     19  H   THR A   8     -26.412  -7.024  12.200  0.00  0.00    +0.150 HD
ATOM     20  O   THR A   7     -23.254  -7.031  12.446  0.00  0.00    -0.273 OA
BRANCH  18  21
ATOM     21  CA  THR A   8     -25.430  -7.887  13.924  0.00  0.00    +0.164 C 
BRANCH  21  22
ATOM     22  C   THR A   8     -26.071  -9.266  13.838  0.00  0.00    +0.229 C 
ATOM     23  O   THR A   8     -26.709  -9.601  12.840  0.00  0.00    -0.286 OA
ENDBRANCH  21  22
BRANCH  21  24
ATOM     24  CB  THR A   8     -26.144  -7.067  15.013  0.00  0.00    +0.136 C 
ATOM     25  CG2 THR A   8     -25.690  -5.615  14.970  0.00  0.00    +0.034 C 
BRANCH  24  26
ATOM     26  OG1 THR A   8     -27.561  -7.126  14.810  0.00  0.00    -0.382 OA
ATOM     27  HG1 THR A   8     -28.016  -6.597  15.512  0.00  0.00    +0.210 HD
ENDBRANCH  24  26
ENDBRANCH  21  24
ENDBRANCH  18  21
ENDBRANCH  16  17
BRANCH  16  28
ATOM     28  CB  THR A   7     -25.155  -7.182   9.633  0.00  0.00    +0.137 C 
ATOM     29  CG2 THR A   7     -24.308  -8.443   9.598  0.00  0.00    +0.034 C 
BRANCH  28  30
ATOM     30  OG1 THR A   7     -26.495  -7.523  10.007  0.00  0.00    -0.382 OA
ATOM     31  HG1 THR A   7     -27.054  -6.706  10.010  0.00  0.00    +0.210 HD
ENDBRANCH  28  30
ENDBRANCH  16  28
ENDBRANCH  13  16
ENDBRANCH  10  12
ENDBRANCH   7  10
ENDBRANCH   5   6
BRANCH   5  32
ATOM     32  CB  ARG A   5     -19.427  -1.824   5.618  0.00  0.00    +0.033 C 
BRANCH  32  33
ATOM     33  CG  ARG A   5     -19.502  -0.629   4.689  0.00  0.00    +0.045 C 
BRANCH  33  34
ATOM     34  CD  ARG A   5     -18.208   0.163   4.718  0.00  0.00    +0.174 C 
BRANCH  34  35
ATOM     35  NE  ARG A   5     -18.445   1.584   4.491  0.00  0.00    -0.265 N 
ATOM     36  CZ  ARG A   5     -18.779   2.443   5.448  0.00  0.00    +0.342 C 
ATOM     37  NH2 ARG A   5     -18.915   2.024   6.698  0.00  0.00    -0.292 N 
ATOM     38 HH21 ARG A   5     -19.176   2.697   7.447  0.00  0.00    +0.255 HD
ATOM     39 HH22 ARG A   5     -18.760   1.022   6.930  0.00  0.00    +0.255 HD
ATOM     40  NH1 ARG A   5     -18.978   3.721   5.159  0.00  0.00    -0.292 N 
ATOM     41 HH11 ARG A   5     -19.239   4.390   5.911  0.00  0.00    +0.255 HD
ATOM     42 HH12 ARG A   5     -18.873   4.055   4.180  0.00  0.00    +0.255 HD
ATOM     43  HE  ARG A   5     -18.347   1.947   3.521  0.00  0.00    +0.259 HD
ENDBRANCH  34  35
ENDBRANCH  33  34
ENDBRANCH  32  33
ENDBRANCH   5  32
ENDBRANCH   2   5
BRANCH   1  44
ATOM     44  CA  ASP A   4     -23.765  -0.527   4.672  0.00  0.00    +0.160 C 
BRANCH  44  47
ATOM     45  C   LYS A   3     -24.788  -0.545   6.877  0.00  0.00    +0.241 C 
ATOM     46  O   LYS A   3     -25.300  -1.646   6.679  0.00  0.00    -0.273 OA
ATOM     47  N   ASP A   4     -23.996   0.049   5.992  0.00  0.00    -0.297 N 
ATOM     48  H   ASP A   4     -23.531   0.944   6.245  0.00  0.00    +0.150 HD
BRANCH  45  49
ATOM     49  CA  LYS A   3     -25.041   0.209   8.177  0.00  0.00    +0.149 C 
BRANCH  49  51
ATOM     50  C   ILE A   2     -22.695   0.663   8.663  0.00  0.00    +0.241 C 
ATOM     51  N   LYS A   3     -23.942   1.101   8.533  0.00  0.00    -0.297 N 
ATOM     52  H   LYS A   3     -24.141   2.110   8.690  0.00  0.00    +0.150 HD
ATOM     53  O   ILE A   2     -22.360  -0.496   8.419  0.00  0.00    -0.273 OA
BRANCH  50  54
ATOM     54  CA  ILE A   2     -21.672   1.686   9.139  0.00  0.00    +0.148 C 
BRANCH  54  56
ATOM     55  C   GLU A   1     -21.746   4.022   8.475  0.00  0.00    +0.238 C 
ATOM     56  N   ILE A   2     -22.254   3.021   9.187  0.00  0.00    -0.297 N 
ATOM     57  H   ILE A   2     -23.083   3.194   9.790  0.00  0.00    +0.150 HD
ATOM     58  O   GLU A   1     -20.751   3.896   7.761  0.00  0.00    -0.274 OA
BRANCH  55  59
ATOM     59  CA  GLU A   1     -22.461   5.366   8.579  0.00  0.00    +0.145 C 
BRANCH  59  60
ATOM     60  N   GLU A   1     -23.818   5.242   9.108  0.00  0.00    -0.238 NA
ATOM     61  H   GLU A   1     -24.041   5.639  10.043  0.00  0.00    +0.142 HD
ENDBRANCH  59  60
BRANCH  59  62
ATOM     62  CB  GLU A   1     -21.625   6.345   9.409  0.00  0.00    +0.038 C 
BRANCH  62  63
ATOM     63  CG  GLU A   1     -21.493   5.986  10.879  0.00  0.00    +0.116 C 
BRANCH  63  64
ATOM     64  CD  GLU A   1     -22.553   6.645  11.739  0.00  0.00    +0.365 C 
ATOM     65  OE2 GLU A   1     -22.253   6.968  12.907  0.00  0.00    -0.246 OA
ATOM     66  OE1 GLU A   1     -23.683   6.844  11.247  0.00  0.00    -0.246 OA
ENDBRANCH  63  64
ENDBRANCH  62  63
ENDBRANCH  59  62
ENDBRANCH  55  59
ENDBRANCH  54  56
BRANCH  54  67
ATOM     67  CB  ILE A   2     -21.135   1.248  10.516  0.00  0.00    +0.027 C 
ATOM     68  CG2 ILE A   2     -20.162   2.281  11.064  0.00  0.00    +0.002 C 
BRANCH  67  69
ATOM     69  CG1 ILE A   2     -22.292   1.012  11.489  0.00  0.00    +0.002 C 
ATOM     70  CD1 ILE A   2     -21.858   0.448  12.825  0.00  0.00    +0.000 C 
ENDBRANCH  67  69
ENDBRANCH  54  67
ENDBRANCH  50  54
ENDBRANCH  49  51
BRANCH  49  71
ATOM     71  CB  LYS A   3     -26.350   0.994   8.066  0.00  0.00    +0.029 C 
BRANCH  71  72
ATOM     72  CG  LYS A   3     -27.580   0.121   7.886  0.00  0.00    +0.000 C 
BRANCH  72  73
ATOM     73  CD  LYS A   3     -27.826  -0.736   9.119  0.00  0.00    -0.024 C 
BRANCH  73  74
ATOM     74  CE  LYS A   3     -29.095  -1.562   8.978  0.00  0.00    -0.086 C 
BRANCH  74  75
ATOM     75  NZ  LYS A   3     -30.302  -0.706   8.815  0.00  0.00    +0.380 N 
ATOM     76  HZ1 LYS A   3     -30.405  -0.091   9.648  0.00  0.00    -0.089 HD
ATOM     77  HZ2 LYS A   3     -31.144  -1.310   8.722  0.00  0.00    -0.089 HD
ATOM     78  HZ3 LYS A   3     -30.198  -0.121   7.961  0.00  0.00    -0.089 HD
ENDBRANCH  74  75
ENDBRANCH  73  74
ENDBRANCH  72  73
ENDBRANCH  71  72
ENDBRANCH  49  71
ENDBRANCH  45  49
ENDBRANCH  44  47
BRANCH  44  79
ATOM     79  CB  ASP A   4     -23.470   0.572   3.645  0.00  0.00    +0.143 C 
BRANCH  79  80
ATOM     80  CG  ASP A   4     -22.260   1.411   4.014  0.00  0.00    +0.367 C 
ATOM     81  OD2 ASP A   4     -22.090   1.731   5.209  0.00  0.00    -0.246 OA
ATOM     82  OD1 ASP A   4     -21.480   1.759   3.102  0.00  0.00    -0.246 OA
ENDBRANCH  79  80
ENDBRANCH  44  79
ENDBRANCH   1  44
TORSDOF 36
REMARK  Name = ../refined-set-2016/3efs/3efs_pocket.pdb
REMARK  231 active torsions:
REMARK  status: ('A' for Active; 'I' for Inactive)
REMARK    1  A    between atoms: _1  and  _3
REMARK    2  A    between atoms: _3  and  _4
REMARK    3  A    between atoms: _6  and  _8
REMARK    4  A    between atoms: _8  and  _9
REMARK    5  A    between atoms: _8  and  _11
REMARK    6  A    between atoms: _11  and  _12
REMARK    7  A    between atoms: _12  and  _13
REMARK    8  A    between atoms: _13  and  _14
REMARK    9  A    between atoms: _23  and  _25
REMARK   10  A    between atoms: _25  and  _26
REMARK   11  A    between atoms: _28  and  _30
REMARK   12  A    between atoms: _30  and  _31
REMARK   13  A    between atoms: _30  and  _33
REMARK   14  A    between atoms: _33  and  _34
REMARK   15  A    between atoms: _34  and  _35
REMARK   16  A    between atoms: _35  and  _36
REMARK   17  A    between atoms: _45  and  _47
REMARK   18  A    between atoms: _47  and  _48
REMARK   19  A    between atoms: _47  and  _50
REMARK   20  A    between atoms: _50  and  _51
REMARK   21  A    between atoms: _54  and  _56
REMARK   22  A    between atoms: _56  and  _57
REMARK   23  A    between atoms: _59  and  _61
REMARK   24  A    between atoms: _61  and  _62
REMARK   25  A    between atoms: _61  and  _64
REMARK   26  A    between atoms: _64  and  _65
REMARK   27  A    between atoms: _65  and  _66
REMARK   28  A    between atoms: _66  and  _67
REMARK   29  A    between atoms: _76  and  _78
REMARK   30  A    between atoms: _78  and  _79
REMARK   31  A    between atoms: _78  and  _81
REMARK   32  A    between atoms: _81  and  _82
REMARK   33  A    between atoms: _82  and  _83
REMARK   34  A    between atoms: _83  and  _84
REMARK   35  A    between atoms: _84  and  _85
REMARK   36  A    between atoms: _89  and  _91
REMARK   37  A    between atoms: _91  and  _92
REMARK   38  A    between atoms: _91  and  _94
REMARK   39  A    between atoms: _94  and  _95
REMARK   40  A    between atoms: _105  and  _107
REMARK   41  A    between atoms: _107  and  _108
REMARK   42  A    between atoms: _107  and  _110
REMARK   43  A    between atoms: _110  and  _111
REMARK   44  A    between atoms: _114  and  _116
REMARK   45  A    between atoms: _116  and  _117
REMARK   46  A    between atoms: _116  and  _119
REMARK   47  A    between atoms: _119  and  _120
REMARK   48  A    between atoms: _122  and  _124
REMARK   49  A    between atoms: _124  and  _125
REMARK   50  A    between atoms: _124  and  _127
REMARK   51  A    between atoms: _127  and  _128
REMARK   52  A    between atoms: _128  and  _129
REMARK   53  A    between atoms: _134  and  _136
REMARK   54  A    between atoms: _136  and  _137
REMARK   55  A    between atoms: _139  and  _141
REMARK   56  A    between atoms: _141  and  _142
REMARK   57  A    between atoms: _141  and  _144
REMARK   58  A    between atoms: _144  and  _145
REMARK   59  A    between atoms: _148  and  _150
REMARK   60  A    between atoms: _150  and  _151
REMARK   61  A    between atoms: _150  and  _153
REMARK   62  A    between atoms: _153  and  _154
REMARK   63  A    between atoms: _159  and  _160
REMARK   64  A    between atoms: _162  and  _164
REMARK   65  A    between atoms: _164  and  _165
REMARK   66  A    between atoms: _164  and  _167
REMARK   67  A    between atoms: _167  and  _168
REMARK   68  A    between atoms: _168  and  _169
REMARK   69  A    between atoms: _169  and  _170
REMARK   70  A    between atoms: _170  and  _171
REMARK   71  A    between atoms: _175  and  _177
REMARK   72  A    between atoms: _177  and  _178
REMARK   73  A    between atoms: _177  and  _180
REMARK   74  A    between atoms: _180  and  _181
REMARK   75  A    between atoms: _192  and  _193
REMARK   76  A    between atoms: _198  and  _200
REMARK   77  A    between atoms: _200  and  _201
REMARK   78  A    between atoms: _200  and  _203
REMARK   79  A    between atoms: _203  and  _204
REMARK   80  A    between atoms: _209  and  _211
REMARK   81  A    between atoms: _211  and  _212
REMARK   82  A    between atoms: _211  and  _214
REMARK   83  A    between atoms: _214  and  _215
REMARK   84  A    between atoms: _218  and  _220
REMARK   85  A    between atoms: _220  and  _221
REMARK   86  A    between atoms: _220  and  _223
REMARK   87  A    between atoms: _226  and  _228
REMARK   88  A    between atoms: _228  and  _229
REMARK   89  A    between atoms: _228  and  _231
REMARK   90  A    between atoms: _231  and  _232
REMARK   91  A    between atoms: _237  and  _238
REMARK   92  A    between atoms: _240  and  _242
REMARK   93  A    between atoms: _242  and  _243
REMARK   94  A    between atoms: _242  and  _245
REMARK   95  A    between atoms: _245  and  _246
REMARK   96  A    between atoms: _246  and  _247
REMARK   97  A    between atoms: _247  and  _248
REMARK   98  A    between atoms: _248  and  _249
REMARK   99  A    between atoms: _253  and  _255
REMARK  100  A    between atoms: _255  and  _256
REMARK  101  A    between atoms: _255  and  _258
REMARK  102  A    between atoms: _258  and  _259
REMARK  103  A    between atoms: _259  and  _260
REMARK  104  A    between atoms: _260  and  _261
REMARK  105  A    between atoms: _261  and  _262
REMARK  106  A    between atoms: _266  and  _268
REMARK  107  A    between atoms: _268  and  _269
REMARK  108  A    between atoms: _268  and  _271
REMARK  109  A    between atoms: _274  and  _276
REMARK  110  A    between atoms: _276  and  _277
REMARK  111  A    between atoms: _276  and  _279
REMARK  112  A    between atoms: _279  and  _280
REMARK  113  A    between atoms: _282  and  _284
REMARK  114  A    between atoms: _284  and  _285
REMARK  115  A    between atoms: _287  and  _289
REMARK  116  A    between atoms: _289  and  _290
REMARK  117  A    between atoms: _289  and  _292
REMARK  118  A    between atoms: _295  and  _297
REMARK  119  A    between atoms: _297  and  _298
REMARK  120  A    between atoms: _297  and  _300
REMARK  121  A    between atoms: _300  and  _301
REMARK  122  A    between atoms: _304  and  _306
REMARK  123  A    between atoms: _306  and  _307
REMARK  124  A    between atoms: _309  and  _311
REMARK  125  A    between atoms: _311  and  _312
REMARK  126  A    between atoms: _311  and  _314
REMARK  127  A    between atoms: _314  and  _315
REMARK  128  A    between atoms: _318  and  _320
REMARK  129  A    between atoms: _320  and  _321
REMARK  130  A    between atoms: _320  and  _323
REMARK  131  A    between atoms: _323  and  _324
REMARK  132  A    between atoms: _329  and  _331
REMARK  133  A    between atoms: _331  and  _332
REMARK  134  A    between atoms: _331  and  _334
REMARK  135  A    between atoms: _337  and  _339
REMARK  136  A    between atoms: _339  and  _340
REMARK  137  A    between atoms: _339  and  _342
REMARK  138  A    between atoms: _342  and  _343
REMARK  139  A    between atoms: _343  and  _344
REMARK  140  A    between atoms: _349  and  _351
REMARK  141  A    between atoms: _351  and  _352
REMARK  142  A    between atoms: _351  and  _354
REMARK  143  A    between atoms: _354  and  _355
REMARK  144  A    between atoms: _359  and  _360
REMARK  145  A    between atoms: _365  and  _367
REMARK  146  A    between atoms: _367  and  _368
REMARK  147  A    between atoms: _367  and  _370
REMARK  148  A    between atoms: _370  and  _371
REMARK  149  A    between atoms: _371  and  _372
REMARK  150  A    between atoms: _375  and  _377
REMARK  151  A    between atoms: _377  and  _378
REMARK  152  A    between atoms: _377  and  _380
REMARK  153  A    between atoms: _380  and  _381
REMARK  154  A    between atoms: _384  and  _386
REMARK  155  A    between atoms: _386  and  _387
REMARK  156  A    between atoms: _386  and  _389
REMARK  157  A    between atoms: _389  and  _390
REMARK  158  A    between atoms: _390  and  _391
REMARK  159  A    between atoms: _391  and  _392
REMARK  160  A    between atoms: _392  and  _393
REMARK  161  A    between atoms: _397  and  _399
REMARK  162  A    between atoms: _399  and  _400
REMARK  163  A    between atoms: _399  and  _402
REMARK  164  A    between atoms: _402  and  _403
REMARK  165  A    between atoms: _406  and  _408
REMARK  166  A    between atoms: _408  and  _409
REMARK  167  A    between atoms: _408  and  _411
REMARK  168  A    between atoms: _411  and  _412
REMARK  169  A    between atoms: _412  and  _413
REMARK  170  A    between atoms: _413  and  _414
REMARK  171  A    between atoms: _423  and  _425
REMARK  172  A    between atoms: _425  and  _426
REMARK  173  A    between atoms: _429  and  _431
REMARK  174  A    between atoms: _431  and  _432
REMARK  175  A    between atoms: _431  and  _434
REMARK  176  A    between atoms: _434  and  _435
REMARK  177  A    between atoms: _438  and  _440
REMARK  178  A    between atoms: _440  and  _441
REMARK  179  A    between atoms: _440  and  _443
REMARK  180  A    between atoms: _443  and  _444
REMARK  181  A    between atoms: _447  and  _449
REMARK  182  A    between atoms: _449  and  _450
REMARK  183  A    between atoms: _449  and  _452
REMARK  184  A    between atoms: _452  and  _453
REMARK  185  A    between atoms: _456  and  _458
REMARK  186  A    between atoms: _458  and  _459
REMARK  187  A    between atoms: _458  and  _461
REMARK  188  A    between atoms: _461  and  _462
REMARK  189  A    between atoms: _467  and  _468
REMARK  190  A    between atoms: _470  and  _472
REMARK  191  A    between atoms: _472  and  _473
REMARK  192  A    between atoms: _472  and  _475
REMARK  193  A    between atoms: _475  and  _476
REMARK  194  A    between atoms: _476  and  _477
REMARK  195  A    between atoms: _477  and  _478
REMARK  196  A    between atoms: _478  and  _479
REMARK  197  A    between atoms: _483  and  _485
REMARK  198  A    between atoms: _485  and  _486
REMARK  199  A    between atoms: _485  and  _488
REMARK  200  A    between atoms: _488  and  _489
REMARK  201  A    between atoms: _492  and  _494
REMARK  202  A    between atoms: _494  and  _495
REMARK  203  A    between atoms: _497  and  _499
REMARK  204  A    between atoms: _499  and  _500
REMARK  205  A    between atoms: _499  and  _502
REMARK  206  A    between atoms: _502  and  _503
REMARK  207  A    between atoms: _503  and  _504
REMARK  208  A    between atoms: _507  and  _509
REMARK  209  A    between atoms: _509  and  _510
REMARK  210  A    between atoms: _509  and  _512
REMARK  211  A    between atoms: _512  and  _513
REMARK  212  A    between atoms: _519  and  _521
REMARK  213  A    between atoms: _521  and  _522
REMARK  214  A    between atoms: _521  and  _524
REMARK  215  A    between atoms: _524  and  _525
REMARK  216  A    between atoms: _527  and  _529
REMARK  217  A    between atoms: _529  and  _530
REMARK  218  A    between atoms: _529  and  _532
REMARK  219  A    between atoms: _532  and  _533
REMARK  220  A    between atoms: _536  and  _538
REMARK  221  A    between atoms: _538  and  _539
REMARK  222  A    between atoms: _538  and  _541
REMARK  223  A    between atoms: _541  and  _542
REMARK  224  A    between atoms: _542  and  _543
REMARK  225  A    between atoms: _543  and  _544
REMARK  226  A    between atoms: _553  and  _555
REMARK  227  A    between atoms: _555  and  _556
REMARK  228  A    between atoms: _555  and  _558
REMARK  229  A    between atoms: _558  and  _559
REMARK  230  A    between atoms: _559  and  _560
REMARK  231  A    between atoms: _560  and  _561
REMARK                            x       y       z     vdW  Elec       q    Type
REMARK                         _______ _______ _______ _____ _____    ______ ____
ROOT
ATOM      1  CA  TYR A   2     -14.117 -12.547  -2.252  0.00  0.00    +0.141 C 
ENDROOT
BRANCH   1   4
ATOM      2  C   LEU A   1     -13.714 -13.123   0.092  0.00  0.00    +0.238 C 
ATOM      3  O   LEU A   1     -12.505 -12.913   0.001  0.00  0.00    -0.274 OA
ATOM      4  N   TYR A   2     -14.555 -12.989  -0.929  0.00  0.00    -0.298 N 
ATOM      5  H   TYR A   2     -15.561 -13.207  -0.781  0.00  0.00    +0.150 HD
BRANCH   2   6
ATOM      6  CA  LEU A   1     -14.327 -13.572   1.415  0.00  0.00    +0.145 C 
BRANCH   6   7
ATOM      7  N   LEU A   1     -13.397 -14.436   2.126  0.00  0.00    -0.238 NA
ATOM      8  H   LEU A   1     -12.950 -14.088   2.998  0.00  0.00    +0.142 HD
ENDBRANCH   6   7
BRANCH   6   9
ATOM      9  CB  LEU A   1     -14.683 -12.358   2.274  0.00  0.00    +0.026 C 
BRANCH   9  10
ATOM     10  CG  LEU A   1     -15.857 -11.490   1.817  0.00  0.00    +0.002 C 
ATOM     11  CD2 LEU A   1     -16.046 -10.311   2.757  0.00  0.00    +0.000 C 
ATOM     12  CD1 LEU A   1     -17.133 -12.311   1.725  0.00  0.00    +0.000 C 
ENDBRANCH   9  10
ENDBRANCH   6   9
ENDBRANCH   2   6
ENDBRANCH   1   4
BRANCH   1  13
ATOM     13  C   TYR A   2     -13.102 -13.491  -2.889  0.00  0.00    +0.227 C 
ATOM     14  O   TYR A   2     -12.251 -13.063  -3.668  0.00  0.00    -0.286 OA
ENDBRANCH   1  13
BRANCH   1  15
ATOM     15  CB  TYR A   2     -13.531 -11.134  -2.191  0.00  0.00    +0.054 C 
BRANCH  15  16
ATOM     16  CG  TYR A   2     -14.422 -10.123  -1.511  0.00  0.00    -0.020 A 
ATOM     17  CD2 TYR A   2     -13.905  -9.233  -0.577  0.00  0.00    -0.001 A 
ATOM     18  CE2 TYR A   2     -14.714  -8.303   0.044  0.00  0.00    +0.036 A 
ATOM     19  CZ  TYR A   2     -16.058  -8.253  -0.269  0.00  0.00    +0.134 A 
ATOM     20  CE1 TYR A   2     -16.593  -9.124  -1.197  0.00  0.00    +0.036 A 
ATOM     21  CD1 TYR A   2     -15.776 -10.048  -1.814  0.00  0.00    -0.001 A 
BRANCH  19  22
ATOM     22  OH  TYR A   2     -16.871  -7.329   0.346  0.00  0.00    -0.506 OA
ATOM     23  HH  TYR A   2     -17.796  -7.429   0.009  0.00  0.00    +0.292 HD
ENDBRANCH  19  22
ENDBRANCH  15  16
ENDBRANCH   1  15
TORSDOF 9
REMARK  Name = ../refined-set-2016/3efs/3efs_pocket.pdb
REMARK  231 active torsions:
REMARK  status: ('A' for Active; 'I' for Inactive)
REMARK    1  A    between atoms: _1  and  _3
REMARK    2  A    between atoms: _3  and  _4
REMARK    3  A    between atoms: _6  and  _8
REMARK    4  A    between atoms: _8  and  _9
REMARK    5  A    between atoms: _8  and  _11
REMARK    6  A    between atoms: _11  and  _12
REMARK    7  A    between atoms: _12  and  _13
REMARK    8  A    between atoms: _13  and  _14
REMARK    9  A    between atoms: _23  and  _25
REMARK   10  A    between atoms: _25  and  _26
REMARK   11  A    between atoms: _28  and  _30
REMARK   12  A    between atoms: _30  and  _31
REMARK   13  A    between atoms: _30  and  _33
REMARK   14  A    between atoms: _33  and  _34
REMARK   15  A    between atoms: _34  and  _35
REMARK   16  A    between atoms: _35  and  _36
REMARK   17  A    between atoms: _45  and  _47
REMARK   18  A    between atoms: _47  and  _48
REMARK   19  A    between atoms: _47  and  _50
REMARK   20  A    between atoms: _50  and  _51
REMARK   21  A    between atoms: _54  and  _56
REMARK   22  A    between atoms: _56  and  _57
REMARK   23  A    between atoms: _59  and  _61
REMARK   24  A    between atoms: _61  and  _62
REMARK   25  A    between atoms: _61  and  _64
REMARK   26  A    between atoms: _64  and  _65
REMARK   27  A    between atoms: _65  and  _66
REMARK   28  A    between atoms: _66  and  _67
REMARK   29  A    between atoms: _76  and  _78
REMARK   30  A    between atoms: _78  and  _79
REMARK   31  A    between atoms: _78  and  _81
REMARK   32  A    between atoms: _81  and  _82
REMARK   33  A    between atoms: _82  and  _83
REMARK   34  A    between atoms: _83  and  _84
REMARK   35  A    between atoms: _84  and  _85
REMARK   36  A    between atoms: _89  and  _91
REMARK   37  A    between atoms: _91  and  _92
REMARK   38  A    between atoms: _91  and  _94
REMARK   39  A    between atoms: _94  and  _95
REMARK   40  A    between atoms: _105  and  _107
REMARK   41  A    between atoms: _107  and  _108
REMARK   42  A    between atoms: _107  and  _110
REMARK   43  A    between atoms: _110  and  _111
REMARK   44  A    between atoms: _114  and  _116
REMARK   45  A    between atoms: _116  and  _117
REMARK   46  A    between atoms: _116  and  _119
REMARK   47  A    between atoms: _119  and  _120
REMARK   48  A    between atoms: _122  and  _124
REMARK   49  A    between atoms: _124  and  _125
REMARK   50  A    between atoms: _124  and  _127
REMARK   51  A    between atoms: _127  and  _128
REMARK   52  A    between atoms: _128  and  _129
REMARK   53  A    between atoms: _134  and  _136
REMARK   54  A    between atoms: _136  and  _137
REMARK   55  A    between atoms: _139  and  _141
REMARK   56  A    between atoms: _141  and  _142
REMARK   57  A    between atoms: _141  and  _144
REMARK   58  A    between atoms: _144  and  _145
REMARK   59  A    between atoms: _148  and  _150
REMARK   60  A    between atoms: _150  and  _151
REMARK   61  A    between atoms: _150  and  _153
REMARK   62  A    between atoms: _153  and  _154
REMARK   63  A    between atoms: _159  and  _160
REMARK   64  A    between atoms: _162  and  _164
REMARK   65  A    between atoms: _164  and  _165
REMARK   66  A    between atoms: _164  and  _167
REMARK   67  A    between atoms: _167  and  _168
REMARK   68  A    between atoms: _168  and  _169
REMARK   69  A    between atoms: _169  and  _170
REMARK   70  A    between atoms: _170  and  _171
REMARK   71  A    between atoms: _175  and  _177
REMARK   72  A    between atoms: _177  and  _178
REMARK   73  A    between atoms: _177  and  _180
REMARK   74  A    between atoms: _180  and  _181
REMARK   75  A    between atoms: _192  and  _193
REMARK   76  A    between atoms: _198  and  _200
REMARK   77  A    between atoms: _200  and  _201
REMARK   78  A    between atoms: _200  and  _203
REMARK   79  A    between atoms: _203  and  _204
REMARK   80  A    between atoms: _209  and  _211
REMARK   81  A    between atoms: _211  and  _212
REMARK   82  A    between atoms: _211  and  _214
REMARK   83  A    between atoms: _214  and  _215
REMARK   84  A    between atoms: _218  and  _220
REMARK   85  A    between atoms: _220  and  _221
REMARK   86  A    between atoms: _220  and  _223
REMARK   87  A    between atoms: _226  and  _228
REMARK   88  A    between atoms: _228  and  _229
REMARK   89  A    between atoms: _228  and  _231
REMARK   90  A    between atoms: _231  and  _232
REMARK   91  A    between atoms: _237  and  _238
REMARK   92  A    between atoms: _240  and  _242
REMARK   93  A    between atoms: _242  and  _243
REMARK   94  A    between atoms: _242  and  _245
REMARK   95  A    between atoms: _245  and  _246
REMARK   96  A    between atoms: _246  and  _247
REMARK   97  A    between atoms: _247  and  _248
REMARK   98  A    between atoms: _248  and  _249
REMARK   99  A    between atoms: _253  and  _255
REMARK  100  A    between atoms: _255  and  _256
REMARK  101  A    between atoms: _255  and  _258
REMARK  102  A    between atoms: _258  and  _259
REMARK  103  A    between atoms: _259  and  _260
REMARK  104  A    between atoms: _260  and  _261
REMARK  105  A    between atoms: _261  and  _262
REMARK  106  A    between atoms: _266  and  _268
REMARK  107  A    between atoms: _268  and  _269
REMARK  108  A    between atoms: _268  and  _271
REMARK  109  A    between atoms: _274  and  _276
REMARK  110  A    between atoms: _276  and  _277
REMARK  111  A    between atoms: _276  and  _279
REMARK  112  A    between atoms: _279  and  _280
REMARK  113  A    between atoms: _282  and  _284
REMARK  114  A    between atoms: _284  and  _285
REMARK  115  A    between atoms: _287  and  _289
REMARK  116  A    between atoms: _289  and  _290
REMARK  117  A    between atoms: _289  and  _292
REMARK  118  A    between atoms: _295  and  _297
REMARK  119  A    between atoms: _297  and  _298
REMARK  120  A    between atoms: _297  and  _300
REMARK  121  A    between atoms: _300  and  _301
REMARK  122  A    between atoms: _304  and  _306
REMARK  123  A    between atoms: _306  and  _307
REMARK  124  A    between atoms: _309  and  _311
REMARK  125  A    between atoms: _311  and  _312
REMARK  126  A    between atoms: _311  and  _314
REMARK  127  A    between atoms: _314  and  _315
REMARK  128  A    between atoms: _318  and  _320
REMARK  129  A    between atoms: _320  and  _321
REMARK  130  A    between atoms: _320  and  _323
REMARK  131  A    between atoms: _323  and  _324
REMARK  132  A    between atoms: _329  and  _331
REMARK  133  A    between atoms: _331  and  _332
REMARK  134  A    between atoms: _331  and  _334
REMARK  135  A    between atoms: _337  and  _339
REMARK  136  A    between atoms: _339  and  _340
REMARK  137  A    between atoms: _339  and  _342
REMARK  138  A    between atoms: _342  and  _343
REMARK  139  A    between atoms: _343  and  _344
REMARK  140  A    between atoms: _349  and  _351
REMARK  141  A    between atoms: _351  and  _352
REMARK  142  A    between atoms: _351  and  _354
REMARK  143  A    between atoms: _354  and  _355
REMARK  144  A    between atoms: _359  and  _360
REMARK  145  A    between atoms: _365  and  _367
REMARK  146  A    between atoms: _367  and  _368
REMARK  147  A    between atoms: _367  and  _370
REMARK  148  A    between atoms: _370  and  _371
REMARK  149  A    between atoms: _371  and  _372
REMARK  150  A    between atoms: _375  and  _377
REMARK  151  A    between atoms: _377  and  _378
REMARK  152  A    between atoms: _377  and  _380
REMARK  153  A    between atoms: _380  and  _381
REMARK  154  A    between atoms: _384  and  _386
REMARK  155  A    between atoms: _386  and  _387
REMARK  156  A    between atoms: _386  and  _389
REMARK  157  A    between atoms: _389  and  _390
REMARK  158  A    between atoms: _390  and  _391
REMARK  159  A    between atoms: _391  and  _392
REMARK  160  A    between atoms: _392  and  _393
REMARK  161  A    between atoms: _397  and  _399
REMARK  162  A    between atoms: _399  and  _400
REMARK  163  A    between atoms: _399  and  _402
REMARK  164  A    between atoms: _402  and  _403
REMARK  165  A    between atoms: _406  and  _408
REMARK  166  A    between atoms: _408  and  _409
REMARK  167  A    between atoms: _408  and  _411
REMARK  168  A    between atoms: _411  and  _412
REMARK  169  A    between atoms: _412  and  _413
REMARK  170  A    between atoms: _413  and  _414
REMARK  171  A    between atoms: _423  and  _425
REMARK  172  A    between atoms: _425  and  _426
REMARK  173  A    between atoms: _429  and  _431
REMARK  174  A    between atoms: _431  and  _432
REMARK  175  A    between atoms: _431  and  _434
REMARK  176  A    between atoms: _434  and  _435
REMARK  177  A    between atoms: _438  and  _440
REMARK  178  A    between atoms: _440  and  _441
REMARK  179  A    between atoms: _440  and  _443
REMARK  180  A    between atoms: _443  and  _444
REMARK  181  A    between atoms: _447  and  _449
REMARK  182  A    between atoms: _449  and  _450
REMARK  183  A    between atoms: _449  and  _452
REMARK  184  A    between atoms: _452  and  _453
REMARK  185  A    between atoms: _456  and  _458
REMARK  186  A    between atoms: _458  and  _459
REMARK  187  A    between atoms: _458  and  _461
REMARK  188  A    between atoms: _461  and  _462
REMARK  189  A    between atoms: _467  and  _468
REMARK  190  A    between atoms: _470  and  _472
REMARK  191  A    between atoms: _472  and  _473
REMARK  192  A    between atoms: _472  and  _475
REMARK  193  A    between atoms: _475  and  _476
REMARK  194  A    between atoms: _476  and  _477
REMARK  195  A    between atoms: _477  and  _478
REMARK  196  A    between atoms: _478  and  _479
REMARK  197  A    between atoms: _483  and  _485
REMARK  198  A    between atoms: _485  and  _486
REMARK  199  A    between atoms: _485  and  _488
REMARK  200  A    between atoms: _488  and  _489
REMARK  201  A    between atoms: _492  and  _494
REMARK  202  A    between atoms: _494  and  _495
REMARK  203  A    between atoms: _497  and  _499
REMARK  204  A    between atoms: _499  and  _500
REMARK  205  A    between atoms: _499  and  _502
REMARK  206  A    between atoms: _502  and  _503
REMARK  207  A    between atoms: _503  and  _504
REMARK  208  A    between atoms: _507  and  _509
REMARK  209  A    between atoms: _509  and  _510
REMARK  210  A    between atoms: _509  and  _512
REMARK  211  A    between atoms: _512  and  _513
REMARK  212  A    between atoms: _519  and  _521
REMARK  213  A    between atoms: _521  and  _522
REMARK  214  A    between atoms: _521  and  _524
REMARK  215  A    between atoms: _524  and  _525
REMARK  216  A    between atoms: _527  and  _529
REMARK  217  A    between atoms: _529  and  _530
REMARK  218  A    between atoms: _529  and  _532
REMARK  219  A    between atoms: _532  and  _533
REMARK  220  A    between atoms: _536  and  _538
REMARK  221  A    between atoms: _538  and  _539
REMARK  222  A    between atoms: _538  and  _541
REMARK  223  A    between atoms: _541  and  _542
REMARK  224  A    between atoms: _542  and  _543
REMARK  225  A    between atoms: _543  and  _544
REMARK  226  A    between atoms: _553  and  _555
REMARK  227  A    between atoms: _555  and  _556
REMARK  228  A    between atoms: _555  and  _558
REMARK  229  A    between atoms: _558  and  _559
REMARK  230  A    between atoms: _559  and  _560
REMARK  231  A    between atoms: _560  and  _561
REMARK                            x       y       z     vdW  Elec       q    Type
REMARK                         _______ _______ _______ _____ _____    ______ ____
ROOT
ATOM      1  CG  LYS A   1      -9.235  -2.560  -4.045  0.00  0.00    -0.000 C 
ENDROOT
BRANCH   1   2
ATOM      2  CB  LYS A   1      -8.110  -3.132  -4.893  0.00  0.00    +0.025 C 
BRANCH   2   3
ATOM      3  CA  LYS A   1      -7.594  -4.494  -4.421  0.00  0.00    +0.133 C 
BRANCH   3   4
ATOM      4  N   LYS A   1      -8.646  -5.498  -4.490  0.00  0.00    -0.239 NA
ATOM      5  H   LYS A   1      -9.380  -5.513  -3.753  0.00  0.00    +0.142 HD
ENDBRANCH   3   4
BRANCH   3   6
ATOM      6  C   LYS A   1      -7.036  -4.387  -3.003  0.00  0.00    +0.224 C 
ATOM      7  O   LYS A   1      -7.785  -4.395  -2.025  0.00  0.00    -0.287 OA
ENDBRANCH   3   6
ENDBRANCH   2   3
ENDBRANCH   1   2
BRANCH   1   8
ATOM      8  CD  LYS A   1      -9.602  -1.150  -4.492  0.00  0.00    -0.024 C 
BRANCH   8   9
ATOM      9  CE  LYS A   1     -10.395  -1.158  -5.788  0.00  0.00    -0.086 C 
BRANCH   9  10
ATOM     10  NZ  LYS A   1     -11.770  -1.699  -5.596  0.00  0.00    +0.380 N 
ATOM     11  HZ1 LYS A   1     -12.279  -1.111  -4.906  0.00  0.00    -0.089 HD
ATOM     12  HZ2 LYS A   1     -11.711  -2.676  -5.244  0.00  0.00    -0.089 HD
ATOM     13  HZ3 LYS A   1     -12.276  -1.687  -6.504  0.00  0.00    -0.089 HD
ENDBRANCH   9  10
ENDBRANCH   8   9
ENDBRANCH   1   8
TORSDOF 7
REMARK  Name = ../refined-set-2016/3efs/3efs_pocket.pdb
REMARK  231 active torsions:
REMARK  status: ('A' for Active; 'I' for Inactive)
REMARK    1  A    between atoms: _1  and  _3
REMARK    2  A    between atoms: _3  and  _4
REMARK    3  A    between atoms: _6  and  _8
REMARK    4  A    between atoms: _8  and  _9
REMARK    5  A    between atoms: _8  and  _11
REMARK    6  A    between atoms: _11  and  _12
REMARK    7  A    between atoms: _12  and  _13
REMARK    8  A    between atoms: _13  and  _14
REMARK    9  A    between atoms: _23  and  _25
REMARK   10  A    between atoms: _25  and  _26
REMARK   11  A    between atoms: _28  and  _30
REMARK   12  A    between atoms: _30  and  _31
REMARK   13  A    between atoms: _30  and  _33
REMARK   14  A    between atoms: _33  and  _34
REMARK   15  A    between atoms: _34  and  _35
REMARK   16  A    between atoms: _35  and  _36
REMARK   17  A    between atoms: _45  and  _47
REMARK   18  A    between atoms: _47  and  _48
REMARK   19  A    between atoms: _47  and  _50
REMARK   20  A    between atoms: _50  and  _51
REMARK   21  A    between atoms: _54  and  _56
REMARK   22  A    between atoms: _56  and  _57
REMARK   23  A    between atoms: _59  and  _61
REMARK   24  A    between atoms: _61  and  _62
REMARK   25  A    between atoms: _61  and  _64
REMARK   26  A    between atoms: _64  and  _65
REMARK   27  A    between atoms: _65  and  _66
REMARK   28  A    between atoms: _66  and  _67
REMARK   29  A    between atoms: _76  and  _78
REMARK   30  A    between atoms: _78  and  _79
REMARK   31  A    between atoms: _78  and  _81
REMARK   32  A    between atoms: _81  and  _82
REMARK   33  A    between atoms: _82  and  _83
REMARK   34  A    between atoms: _83  and  _84
REMARK   35  A    between atoms: _84  and  _85
REMARK   36  A    between atoms: _89  and  _91
REMARK   37  A    between atoms: _91  and  _92
REMARK   38  A    between atoms: _91  and  _94
REMARK   39  A    between atoms: _94  and  _95
REMARK   40  A    between atoms: _105  and  _107
REMARK   41  A    between atoms: _107  and  _108
REMARK   42  A    between atoms: _107  and  _110
REMARK   43  A    between atoms: _110  and  _111
REMARK   44  A    between atoms: _114  and  _116
REMARK   45  A    between atoms: _116  and  _117
REMARK   46  A    between atoms: _116  and  _119
REMARK   47  A    between atoms: _119  and  _120
REMARK   48  A    between atoms: _122  and  _124
REMARK   49  A    between atoms: _124  and  _125
REMARK   50  A    between atoms: _124  and  _127
REMARK   51  A    between atoms: _127  and  _128
REMARK   52  A    between atoms: _128  and  _129
REMARK   53  A    between atoms: _134  and  _136
REMARK   54  A    between atoms: _136  and  _137
REMARK   55  A    between atoms: _139  and  _141
REMARK   56  A    between atoms: _141  and  _142
REMARK   57  A    between atoms: _141  and  _144
REMARK   58  A    between atoms: _144  and  _145
REMARK   59  A    between atoms: _148  and  _150
REMARK   60  A    between atoms: _150  and  _151
REMARK   61  A    between atoms: _150  and  _153
REMARK   62  A    between atoms: _153  and  _154
REMARK   63  A    between atoms: _159  and  _160
REMARK   64  A    between atoms: _162  and  _164
REMARK   65  A    between atoms: _164  and  _165
REMARK   66  A    between atoms: _164  and  _167
REMARK   67  A    between atoms: _167  and  _168
REMARK   68  A    between atoms: _168  and  _169
REMARK   69  A    between atoms: _169  and  _170
REMARK   70  A    between atoms: _170  and  _171
REMARK   71  A    between atoms: _175  and  _177
REMARK   72  A    between atoms: _177  and  _178
REMARK   73  A    between atoms: _177  and  _180
REMARK   74  A    between atoms: _180  and  _181
REMARK   75  A    between atoms: _192  and  _193
REMARK   76  A    between atoms: _198  and  _200
REMARK   77  A    between atoms: _200  and  _201
REMARK   78  A    between atoms: _200  and  _203
REMARK   79  A    between atoms: _203  and  _204
REMARK   80  A    between atoms: _209  and  _211
REMARK   81  A    between atoms: _211  and  _212
REMARK   82  A    between atoms: _211  and  _214
REMARK   83  A    between atoms: _214  and  _215
REMARK   84  A    between atoms: _218  and  _220
REMARK   85  A    between atoms: _220  and  _221
REMARK   86  A    between atoms: _220  and  _223
REMARK   87  A    between atoms: _226  and  _228
REMARK   88  A    between atoms: _228  and  _229
REMARK   89  A    between atoms: _228  and  _231
REMARK   90  A    between atoms: _231  and  _232
REMARK   91  A    between atoms: _237  and  _238
REMARK   92  A    between atoms: _240  and  _242
REMARK   93  A    between atoms: _242  and  _243
REMARK   94  A    between atoms: _242  and  _245
REMARK   95  A    between atoms: _245  and  _246
REMARK   96  A    between atoms: _246  and  _247
REMARK   97  A    between atoms: _247  and  _248
REMARK   98  A    between atoms: _248  and  _249
REMARK   99  A    between atoms: _253  and  _255
REMARK  100  A    between atoms: _255  and  _256
REMARK  101  A    between atoms: _255  and  _258
REMARK  102  A    between atoms: _258  and  _259
REMARK  103  A    between atoms: _259  and  _260
REMARK  104  A    between atoms: _260  and  _261
REMARK  105  A    between atoms: _261  and  _262
REMARK  106  A    between atoms: _266  and  _268
REMARK  107  A    between atoms: _268  and  _269
REMARK  108  A    between atoms: _268  and  _271
REMARK  109  A    between atoms: _274  and  _276
REMARK  110  A    between atoms: _276  and  _277
REMARK  111  A    between atoms: _276  and  _279
REMARK  112  A    between atoms: _279  and  _280
REMARK  113  A    between atoms: _282  and  _284
REMARK  114  A    between atoms: _284  and  _285
REMARK  115  A    between atoms: _287  and  _289
REMARK  116  A    between atoms: _289  and  _290
REMARK  117  A    between atoms: _289  and  _292
REMARK  118  A    between atoms: _295  and  _297
REMARK  119  A    between atoms: _297  and  _298
REMARK  120  A    between atoms: _297  and  _300
REMARK  121  A    between atoms: _300  and  _301
REMARK  122  A    between atoms: _304  and  _306
REMARK  123  A    between atoms: _306  and  _307
REMARK  124  A    between atoms: _309  and  _311
REMARK  125  A    between atoms: _311  and  _312
REMARK  126  A    between atoms: _311  and  _314
REMARK  127  A    between atoms: _314  and  _315
REMARK  128  A    between atoms: _318  and  _320
REMARK  129  A    between atoms: _320  and  _321
REMARK  130  A    between atoms: _320  and  _323
REMARK  131  A    between atoms: _323  and  _324
REMARK  132  A    between atoms: _329  and  _331
REMARK  133  A    between atoms: _331  and  _332
REMARK  134  A    between atoms: _331  and  _334
REMARK  135  A    between atoms: _337  and  _339
REMARK  136  A    between atoms: _339  and  _340
REMARK  137  A    between atoms: _339  and  _342
REMARK  138  A    between atoms: _342  and  _343
REMARK  139  A    between atoms: _343  and  _344
REMARK  140  A    between atoms: _349  and  _351
REMARK  141  A    between atoms: _351  and  _352
REMARK  142  A    between atoms: _351  and  _354
REMARK  143  A    between atoms: _354  and  _355
REMARK  144  A    between atoms: _359  and  _360
REMARK  145  A    between atoms: _365  and  _367
REMARK  146  A    between atoms: _367  and  _368
REMARK  147  A    between atoms: _367  and  _370
REMARK  148  A    between atoms: _370  and  _371
REMARK  149  A    between atoms: _371  and  _372
REMARK  150  A    between atoms: _375  and  _377
REMARK  151  A    between atoms: _377  and  _378
REMARK  152  A    between atoms: _377  and  _380
REMARK  153  A    between atoms: _380  and  _381
REMARK  154  A    between atoms: _384  and  _386
REMARK  155  A    between atoms: _386  and  _387
REMARK  156  A    between atoms: _386  and  _389
REMARK  157  A    between atoms: _389  and  _390
REMARK  158  A    between atoms: _390  and  _391
REMARK  159  A    between atoms: _391  and  _392
REMARK  160  A    between atoms: _392  and  _393
REMARK  161  A    between atoms: _397  and  _399
REMARK  162  A    between atoms: _399  and  _400
REMARK  163  A    between atoms: _399  and  _402
REMARK  164  A    between atoms: _402  and  _403
REMARK  165  A    between atoms: _406  and  _408
REMARK  166  A    between atoms: _408  and  _409
REMARK  167  A    between atoms: _408  and  _411
REMARK  168  A    between atoms: _411  and  _412
REMARK  169  A    between atoms: _412  and  _413
REMARK  170  A    between atoms: _413  and  _414
REMARK  171  A    between atoms: _423  and  _425
REMARK  172  A    between atoms: _425  and  _426
REMARK  173  A    between atoms: _429  and  _431
REMARK  174  A    between atoms: _431  and  _432
REMARK  175  A    between atoms: _431  and  _434
REMARK  176  A    between atoms: _434  and  _435
REMARK  177  A    between atoms: _438  and  _440
REMARK  178  A    between atoms: _440  and  _441
REMARK  179  A    between atoms: _440  and  _443
REMARK  180  A    between atoms: _443  and  _444
REMARK  181  A    between atoms: _447  and  _449
REMARK  182  A    between atoms: _449  and  _450
REMARK  183  A    between atoms: _449  and  _452
REMARK  184  A    between atoms: _452  and  _453
REMARK  185  A    between atoms: _456  and  _458
REMARK  186  A    between atoms: _458  and  _459
REMARK  187  A    between atoms: _458  and  _461
REMARK  188  A    between atoms: _461  and  _462
REMARK  189  A    between atoms: _467  and  _468
REMARK  190  A    between atoms: _470  and  _472
REMARK  191  A    between atoms: _472  and  _473
REMARK  192  A    between atoms: _472  and  _475
REMARK  193  A    between atoms: _475  and  _476
REMARK  194  A    between atoms: _476  and  _477
REMARK  195  A    between atoms: _477  and  _478
REMARK  196  A    between atoms: _478  and  _479
REMARK  197  A    between atoms: _483  and  _485
REMARK  198  A    between atoms: _485  and  _486
REMARK  199  A    between atoms: _485  and  _488
REMARK  200  A    between atoms: _488  and  _489
REMARK  201  A    between atoms: _492  and  _494
REMARK  202  A    between atoms: _494  and  _495
REMARK  203  A    between atoms: _497  and  _499
REMARK  204  A    between atoms: _499  and  _500
REMARK  205  A    between atoms: _499  and  _502
REMARK  206  A    between atoms: _502  and  _503
REMARK  207  A    between atoms: _503  and  _504
REMARK  208  A    between atoms: _507  and  _509
REMARK  209  A    between atoms: _509  and  _510
REMARK  210  A    between atoms: _509  and  _512
REMARK  211  A    between atoms: _512  and  _513
REMARK  212  A    between atoms: _519  and  _521
REMARK  213  A    between atoms: _521  and  _522
REMARK  214  A    between atoms: _521  and  _524
REMARK  215  A    between atoms: _524  and  _525
REMARK  216  A    between atoms: _527  and  _529
REMARK  217  A    between atoms: _529  and  _530
REMARK  218  A    between atoms: _529  and  _532
REMARK  219  A    between atoms: _532  and  _533
REMARK  220  A    between atoms: _536  and  _538
REMARK  221  A    between atoms: _538  and  _539
REMARK  222  A    between atoms: _538  and  _541
REMARK  223  A    between atoms: _541  and  _542
REMARK  224  A    between atoms: _542  and  _543
REMARK  225  A    between atoms: _543  and  _544
REMARK  226  A    between atoms: _553  and  _555
REMARK  227  A    between atoms: _555  and  _556
REMARK  228  A    between atoms: _555  and  _558
REMARK  229  A    between atoms: _558  and  _559
REMARK  230  A    between atoms: _559  and  _560
REMARK  231  A    between atoms: _560  and  _561
REMARK                            x       y       z     vdW  Elec       q    Type
REMARK                         _______ _______ _______ _____ _____    ______ ____
ROOT
ATOM      1  CA  LEU A   1      -4.119  -0.733  -0.254  0.00  0.00    +0.133 C 
ENDROOT
BRANCH   1   2
ATOM      2  N   LEU A   1      -4.715  -2.047  -0.464  0.00  0.00    -0.239 NA
ATOM      3  H   LEU A   1      -5.431  -2.395   0.205  0.00  0.00    +0.142 HD
ENDBRANCH   1   2
BRANCH   1   4
ATOM      4  C   LEU A   1      -3.528  -0.591   1.142  0.00  0.00    +0.224 C 
ATOM      5  O   LEU A   1      -3.945  -1.270   2.080  0.00  0.00    -0.287 OA
ENDBRANCH   1   4
BRANCH   1   6
ATOM      6  CB  LEU A   1      -5.140   0.377  -0.504  0.00  0.00    +0.025 C 
BRANCH   6   7
ATOM      7  CG  LEU A   1      -5.699   0.481  -1.923  0.00  0.00    +0.002 C 
ATOM      8  CD2 LEU A   1      -6.821  -0.522  -2.129  0.00  0.00    +0.000 C 
ATOM      9  CD1 LEU A   1      -6.190   1.891  -2.192  0.00  0.00    +0.000 C 
ENDBRANCH   6   7
ENDBRANCH   1   6
TORSDOF 4
REMARK  Name = ../refined-set-2016/3efs/3efs_pocket.pdb
REMARK  231 active torsions:
REMARK  status: ('A' for Active; 'I' for Inactive)
REMARK    1  A    between atoms: _1  and  _3
REMARK    2  A    between atoms: _3  and  _4
REMARK    3  A    between atoms: _6  and  _8
REMARK    4  A    between atoms: _8  and  _9
REMARK    5  A    between atoms: _8  and  _11
REMARK    6  A    between atoms: _11  and  _12
REMARK    7  A    between atoms: _12  and  _13
REMARK    8  A    between atoms: _13  and  _14
REMARK    9  A    between atoms: _23  and  _25
REMARK   10  A    between atoms: _25  and  _26
REMARK   11  A    between atoms: _28  and  _30
REMARK   12  A    between atoms: _30  and  _31
REMARK   13  A    between atoms: _30  and  _33
REMARK   14  A    between atoms: _33  and  _34
REMARK   15  A    between atoms: _34  and  _35
REMARK   16  A    between atoms: _35  and  _36
REMARK   17  A    between atoms: _45  and  _47
REMARK   18  A    between atoms: _47  and  _48
REMARK   19  A    between atoms: _47  and  _50
REMARK   20  A    between atoms: _50  and  _51
REMARK   21  A    between atoms: _54  and  _56
REMARK   22  A    between atoms: _56  and  _57
REMARK   23  A    between atoms: _59  and  _61
REMARK   24  A    between atoms: _61  and  _62
REMARK   25  A    between atoms: _61  and  _64
REMARK   26  A    between atoms: _64  and  _65
REMARK   27  A    between atoms: _65  and  _66
REMARK   28  A    between atoms: _66  and  _67
REMARK   29  A    between atoms: _76  and  _78
REMARK   30  A    between atoms: _78  and  _79
REMARK   31  A    between atoms: _78  and  _81
REMARK   32  A    between atoms: _81  and  _82
REMARK   33  A    between atoms: _82  and  _83
REMARK   34  A    between atoms: _83  and  _84
REMARK   35  A    between atoms: _84  and  _85
REMARK   36  A    between atoms: _89  and  _91
REMARK   37  A    between atoms: _91  and  _92
REMARK   38  A    between atoms: _91  and  _94
REMARK   39  A    between atoms: _94  and  _95
REMARK   40  A    between atoms: _105  and  _107
REMARK   41  A    between atoms: _107  and  _108
REMARK   42  A    between atoms: _107  and  _110
REMARK   43  A    between atoms: _110  and  _111
REMARK   44  A    between atoms: _114  and  _116
REMARK   45  A    between atoms: _116  and  _117
REMARK   46  A    between atoms: _116  and  _119
REMARK   47  A    between atoms: _119  and  _120
REMARK   48  A    between atoms: _122  and  _124
REMARK   49  A    between atoms: _124  and  _125
REMARK   50  A    between atoms: _124  and  _127
REMARK   51  A    between atoms: _127  and  _128
REMARK   52  A    between atoms: _128  and  _129
REMARK   53  A    between atoms: _134  and  _136
REMARK   54  A    between atoms: _136  and  _137
REMARK   55  A    between atoms: _139  and  _141
REMARK   56  A    between atoms: _141  and  _142
REMARK   57  A    between atoms: _141  and  _144
REMARK   58  A    between atoms: _144  and  _145
REMARK   59  A    between atoms: _148  and  _150
REMARK   60  A    between atoms: _150  and  _151
REMARK   61  A    between atoms: _150  and  _153
REMARK   62  A    between atoms: _153  and  _154
REMARK   63  A    between atoms: _159  and  _160
REMARK   64  A    between atoms: _162  and  _164
REMARK   65  A    between atoms: _164  and  _165
REMARK   66  A    between atoms: _164  and  _167
REMARK   67  A    between atoms: _167  and  _168
REMARK   68  A    between atoms: _168  and  _169
REMARK   69  A    between atoms: _169  and  _170
REMARK   70  A    between atoms: _170  and  _171
REMARK   71  A    between atoms: _175  and  _177
REMARK   72  A    between atoms: _177  and  _178
REMARK   73  A    between atoms: _177  and  _180
REMARK   74  A    between atoms: _180  and  _181
REMARK   75  A    between atoms: _192  and  _193
REMARK   76  A    between atoms: _198  and  _200
REMARK   77  A    between atoms: _200  and  _201
REMARK   78  A    between atoms: _200  and  _203
REMARK   79  A    between atoms: _203  and  _204
REMARK   80  A    between atoms: _209  and  _211
REMARK   81  A    between atoms: _211  and  _212
REMARK   82  A    between atoms: _211  and  _214
REMARK   83  A    between atoms: _214  and  _215
REMARK   84  A    between atoms: _218  and  _220
REMARK   85  A    between atoms: _220  and  _221
REMARK   86  A    between atoms: _220  and  _223
REMARK   87  A    between atoms: _226  and  _228
REMARK   88  A    between atoms: _228  and  _229
REMARK   89  A    between atoms: _228  and  _231
REMARK   90  A    between atoms: _231  and  _232
REMARK   91  A    between atoms: _237  and  _238
REMARK   92  A    between atoms: _240  and  _242
REMARK   93  A    between atoms: _242  and  _243
REMARK   94  A    between atoms: _242  and  _245
REMARK   95  A    between atoms: _245  and  _246
REMARK   96  A    between atoms: _246  and  _247
REMARK   97  A    between atoms: _247  and  _248
REMARK   98  A    between atoms: _248  and  _249
REMARK   99  A    between atoms: _253  and  _255
REMARK  100  A    between atoms: _255  and  _256
REMARK  101  A    between atoms: _255  and  _258
REMARK  102  A    between atoms: _258  and  _259
REMARK  103  A    between atoms: _259  and  _260
REMARK  104  A    between atoms: _260  and  _261
REMARK  105  A    between atoms: _261  and  _262
REMARK  106  A    between atoms: _266  and  _268
REMARK  107  A    between atoms: _268  and  _269
REMARK  108  A    between atoms: _268  and  _271
REMARK  109  A    between atoms: _274  and  _276
REMARK  110  A    between atoms: _276  and  _277
REMARK  111  A    between atoms: _276  and  _279
REMARK  112  A    between atoms: _279  and  _280
REMARK  113  A    between atoms: _282  and  _284
REMARK  114  A    between atoms: _284  and  _285
REMARK  115  A    between atoms: _287  and  _289
REMARK  116  A    between atoms: _289  and  _290
REMARK  117  A    between atoms: _289  and  _292
REMARK  118  A    between atoms: _295  and  _297
REMARK  119  A    between atoms: _297  and  _298
REMARK  120  A    between atoms: _297  and  _300
REMARK  121  A    between atoms: _300  and  _301
REMARK  122  A    between atoms: _304  and  _306
REMARK  123  A    between atoms: _306  and  _307
REMARK  124  A    between atoms: _309  and  _311
REMARK  125  A    between atoms: _311  and  _312
REMARK  126  A    between atoms: _311  and  _314
REMARK  127  A    between atoms: _314  and  _315
REMARK  128  A    between atoms: _318  and  _320
REMARK  129  A    between atoms: _320  and  _321
REMARK  130  A    between atoms: _320  and  _323
REMARK  131  A    between atoms: _323  and  _324
REMARK  132  A    between atoms: _329  and  _331
REMARK  133  A    between atoms: _331  and  _332
REMARK  134  A    between atoms: _331  and  _334
REMARK  135  A    between atoms: _337  and  _339
REMARK  136  A    between atoms: _339  and  _340
REMARK  137  A    between atoms: _339  and  _342
REMARK  138  A    between atoms: _342  and  _343
REMARK  139  A    between atoms: _343  and  _344
REMARK  140  A    between atoms: _349  and  _351
REMARK  141  A    between atoms: _351  and  _352
REMARK  142  A    between atoms: _351  and  _354
REMARK  143  A    between atoms: _354  and  _355
REMARK  144  A    between atoms: _359  and  _360
REMARK  145  A    between atoms: _365  and  _367
REMARK  146  A    between atoms: _367  and  _368
REMARK  147  A    between atoms: _367  and  _370
REMARK  148  A    between atoms: _370  and  _371
REMARK  149  A    between atoms: _371  and  _372
REMARK  150  A    between atoms: _375  and  _377
REMARK  151  A    between atoms: _377  and  _378
REMARK  152  A    between atoms: _377  and  _380
REMARK  153  A    between atoms: _380  and  _381
REMARK  154  A    between atoms: _384  and  _386
REMARK  155  A    between atoms: _386  and  _387
REMARK  156  A    between atoms: _386  and  _389
REMARK  157  A    between atoms: _389  and  _390
REMARK  158  A    between atoms: _390  and  _391
REMARK  159  A    between atoms: _391  and  _392
REMARK  160  A    between atoms: _392  and  _393
REMARK  161  A    between atoms: _397  and  _399
REMARK  162  A    between atoms: _399  and  _400
REMARK  163  A    between atoms: _399  and  _402
REMARK  164  A    between atoms: _402  and  _403
REMARK  165  A    between atoms: _406  and  _408
REMARK  166  A    between atoms: _408  and  _409
REMARK  167  A    between atoms: _408  and  _411
REMARK  168  A    between atoms: _411  and  _412
REMARK  169  A    between atoms: _412  and  _413
REMARK  170  A    between atoms: _413  and  _414
REMARK  171  A    between atoms: _423  and  _425
REMARK  172  A    between atoms: _425  and  _426
REMARK  173  A    between atoms: _429  and  _431
REMARK  174  A    between atoms: _431  and  _432
REMARK  175  A    between atoms: _431  and  _434
REMARK  176  A    between atoms: _434  and  _435
REMARK  177  A    between atoms: _438  and  _440
REMARK  178  A    between atoms: _440  and  _441
REMARK  179  A    between atoms: _440  and  _443
REMARK  180  A    between atoms: _443  and  _444
REMARK  181  A    between atoms: _447  and  _449
REMARK  182  A    between atoms: _449  and  _450
REMARK  183  A    between atoms: _449  and  _452
REMARK  184  A    between atoms: _452  and  _453
REMARK  185  A    between atoms: _456  and  _458
REMARK  186  A    between atoms: _458  and  _459
REMARK  187  A    between atoms: _458  and  _461
REMARK  188  A    between atoms: _461  and  _462
REMARK  189  A    between atoms: _467  and  _468
REMARK  190  A    between atoms: _470  and  _472
REMARK  191  A    between atoms: _472  and  _473
REMARK  192  A    between atoms: _472  and  _475
REMARK  193  A    between atoms: _475  and  _476
REMARK  194  A    between atoms: _476  and  _477
REMARK  195  A    between atoms: _477  and  _478
REMARK  196  A    between atoms: _478  and  _479
REMARK  197  A    between atoms: _483  and  _485
REMARK  198  A    between atoms: _485  and  _486
REMARK  199  A    between atoms: _485  and  _488
REMARK  200  A    between atoms: _488  and  _489
REMARK  201  A    between atoms: _492  and  _494
REMARK  202  A    between atoms: _494  and  _495
REMARK  203  A    between atoms: _497  and  _499
REMARK  204  A    between atoms: _499  and  _500
REMARK  205  A    between atoms: _499  and  _502
REMARK  206  A    between atoms: _502  and  _503
REMARK  207  A    between atoms: _503  and  _504
REMARK  208  A    between atoms: _507  and  _509
REMARK  209  A    between atoms: _509  and  _510
REMARK  210  A    between atoms: _509  and  _512
REMARK  211  A    between atoms: _512  and  _513
REMARK  212  A    between atoms: _519  and  _521
REMARK  213  A    between atoms: _521  and  _522
REMARK  214  A    between atoms: _521  and  _524
REMARK  215  A    between atoms: _524  and  _525
REMARK  216  A    between atoms: _527  and  _529
REMARK  217  A    between atoms: _529  and  _530
REMARK  218  A    between atoms: _529  and  _532
REMARK  219  A    between atoms: _532  and  _533
REMARK  220  A    between atoms: _536  and  _538
REMARK  221  A    between atoms: _538  and  _539
REMARK  222  A    between atoms: _538  and  _541
REMARK  223  A    between atoms: _541  and  _542
REMARK  224  A    between atoms: _542  and  _543
REMARK  225  A    between atoms: _543  and  _544
REMARK  226  A    between atoms: _553  and  _555
REMARK  227  A    between atoms: _555  and  _556
REMARK  228  A    between atoms: _555  and  _558
REMARK  229  A    between atoms: _558  and  _559
REMARK  230  A    between atoms: _559  and  _560
REMARK  231  A    between atoms: _560  and  _561
REMARK                            x       y       z     vdW  Elec       q    Type
REMARK                         _______ _______ _______ _____ _____    ______ ____
ROOT
ATOM      1  CA  LEU A   5      -8.596  -5.894   1.250  0.00  0.00    +0.149 C 
ENDROOT
BRANCH   1   2
ATOM      2  C   LEU A   5      -9.987  -5.365   0.918  0.00  0.00    +0.241 C 
ATOM      3  O   LEU A   5     -10.888  -5.383   1.756  0.00  0.00    -0.273 OA
ATOM      4  N   ARG A   6     -10.152  -4.894  -0.314  0.00  0.00    -0.297 N 
ATOM      5  H   ARG A   6      -9.346  -4.906  -0.971  0.00  0.00    +0.150 HD
BRANCH   4   6
ATOM      6  CA  ARG A   6     -11.428  -4.361  -0.772  0.00  0.00    +0.149 C 
BRANCH   6   7
ATOM      7  C   ARG A   6     -11.900  -5.073  -2.035  0.00  0.00    +0.241 C 
ATOM      8  N   ARG A   7     -13.208  -5.057  -2.265  0.00  0.00    -0.298 N 
ATOM      9  H   ARG A   7     -13.837  -4.573  -1.593  0.00  0.00    +0.150 HD
ATOM     10  O   ARG A   6     -11.095  -5.626  -2.784  0.00  0.00    -0.273 OA
BRANCH   8  11
ATOM     11  CA  ARG A   7     -13.782  -5.703  -3.439  0.00  0.00    +0.137 C 
BRANCH  11  12
ATOM     12  C   ARG A   7     -13.568  -4.846  -4.681  0.00  0.00    +0.227 C 
ATOM     13  O   ARG A   7     -13.789  -3.635  -4.656  0.00  0.00    -0.286 OA
ENDBRANCH  11  12
BRANCH  11  14
ATOM     14  CB  ARG A   7     -15.274  -5.966  -3.230  0.00  0.00    +0.031 C 
BRANCH  14  15
ATOM     15  CG  ARG A   7     -15.875  -6.967  -4.203  0.00  0.00    +0.045 C 
BRANCH  15  16
ATOM     16  CD  ARG A   7     -17.346  -7.202  -3.904  0.00  0.00    +0.174 C 
BRANCH  16  17
ATOM     17  NE  ARG A   7     -17.877  -8.354  -4.627  0.00  0.00    -0.265 N 
ATOM     18  CZ  ARG A   7     -19.140  -8.761  -4.559  0.00  0.00    +0.342 C 
ATOM     19  NH2 ARG A   7     -20.008  -8.107  -3.799  0.00  0.00    -0.292 N 
ATOM     20 HH21 ARG A   7     -19.700  -7.275  -3.256  0.00  0.00    +0.255 HD
ATOM     21 HH22 ARG A   7     -20.996  -8.426  -3.746  0.00  0.00    +0.255 HD
ATOM     22  NH1 ARG A   7     -19.537  -9.821  -5.250  0.00  0.00    -0.292 N 
ATOM     23 HH11 ARG A   7     -20.526 -10.137  -5.195  0.00  0.00    +0.255 HD
ATOM     24 HH12 ARG A   7     -18.859 -10.336  -5.847  0.00  0.00    +0.255 HD
ATOM     25  HE  ARG A   7     -17.225  -8.890  -5.234  0.00  0.00    +0.259 HD
ENDBRANCH  16  17
ENDBRANCH  15  16
ENDBRANCH  14  15
ENDBRANCH  11  14
ENDBRANCH   8  11
ENDBRANCH   6   7
BRANCH   6  26
ATOM     26  CB  ARG A   6     -11.316  -2.857  -1.025  0.00  0.00    +0.033 C 
BRANCH  26  27
ATOM     27  CG  ARG A   6     -11.241  -2.016   0.238  0.00  0.00    +0.045 C 
BRANCH  27  28
ATOM     28  CD  ARG A   6     -12.614  -1.846   0.867  0.00  0.00    +0.174 C 
BRANCH  28  29
ATOM     29  NE  ARG A   6     -12.586  -0.948   2.018  0.00  0.00    -0.265 N 
ATOM     30  CZ  ARG A   6     -13.671  -0.443   2.598  0.00  0.00    +0.342 C 
ATOM     31  NH2 ARG A   6     -13.552   0.365   3.642  0.00  0.00    -0.292 N 
ATOM     32 HH21 ARG A   6     -14.402   0.759   4.094  0.00  0.00    +0.255 HD
ATOM     33 HH22 ARG A   6     -12.609   0.605   4.009  0.00  0.00    +0.255 HD
ATOM     34  NH1 ARG A   6     -14.874  -0.743   2.130  0.00  0.00    -0.292 N 
ATOM     35 HH11 ARG A   6     -15.722  -0.348   2.584  0.00  0.00    +0.255 HD
ATOM     36 HH12 ARG A   6     -14.970  -1.374   1.309  0.00  0.00    +0.255 HD
ATOM     37  HE  ARG A   6     -11.658  -0.687   2.409  0.00  0.00    +0.259 HD
ENDBRANCH  28  29
ENDBRANCH  27  28
ENDBRANCH  26  27
ENDBRANCH   6  26
ENDBRANCH   4   6
ENDBRANCH   1   2
BRANCH   1  39
ATOM     38  C   SER A   4      -7.228  -4.165   2.275  0.00  0.00    +0.243 C 
ATOM     39  N   LEU A   5      -8.035  -5.212   2.409  0.00  0.00    -0.297 N 
ATOM     40  H   LEU A   5      -8.272  -5.552   3.363  0.00  0.00    +0.150 HD
ATOM     41  O   SER A   4      -6.926  -3.690   1.180  0.00  0.00    -0.273 OA
BRANCH  38  42
ATOM     42  CA  SER A   4      -6.673  -3.566   3.562  0.00  0.00    +0.178 C 
BRANCH  42  45
ATOM     43  C   PHE A   3      -4.379  -4.266   3.980  0.00  0.00    +0.241 C 
ATOM     44  O   PHE A   3      -4.733  -5.194   4.706  0.00  0.00    -0.273 OA
ATOM     45  N   SER A   4      -5.231  -3.402   3.441  0.00  0.00    -0.295 N 
ATOM     46  H   SER A   4      -4.858  -2.585   2.917  0.00  0.00    +0.150 HD
BRANCH  43  47
ATOM     47  CA  PHE A   3      -2.906  -4.046   3.650  0.00  0.00    +0.153 C 
BRANCH  47  50
ATOM     48  C   GLU A   2      -2.024  -3.236   5.769  0.00  0.00    +0.241 C 
ATOM     49  O   GLU A   2      -2.698  -2.206   5.712  0.00  0.00    -0.273 OA
ATOM     50  N   PHE A   3      -2.057  -4.174   4.828  0.00  0.00    -0.297 N 
ATOM     51  H   PHE A   3      -1.462  -5.020   4.935  0.00  0.00    +0.150 HD
BRANCH  48  52
ATOM     52  CA  GLU A   2      -1.091  -3.494   6.949  0.00  0.00    +0.149 C 
BRANCH  52  55
ATOM     53  C   GLY A   1      -1.238  -5.817   7.657  0.00  0.00    +0.240 C 
ATOM     54  O   GLY A   1      -2.255  -5.597   8.312  0.00  0.00    -0.274 OA
ATOM     55  N   GLU A   2      -0.605  -4.871   6.971  0.00  0.00    -0.297 N 
ATOM     56  H   GLU A   2       0.254  -5.116   6.439  0.00  0.00    +0.150 HD
BRANCH  53  57
ATOM     57  CA  GLY A   1      -0.644  -7.211   7.597  0.00  0.00    +0.169 C 
BRANCH  57  58
ATOM     58  N   GLY A   1       0.656  -7.256   6.954  0.00  0.00    -0.236 NA
ATOM     59  H   GLY A   1       1.508  -7.063   7.518  0.00  0.00    +0.142 HD
ENDBRANCH  57  58
ENDBRANCH  53  57
ENDBRANCH  52  55
BRANCH  52  60
ATOM     60  CB  GLU A   2       0.078  -2.507   6.920  0.00  0.00    +0.041 C 
BRANCH  60  61
ATOM     61  CG  GLU A   2       0.778  -2.330   8.258  0.00  0.00    +0.116 C 
BRANCH  61  62
ATOM     62  CD  GLU A   2       1.543  -3.565   8.685  0.00  0.00    +0.365 C 
ATOM     63  OE2 GLU A   2       1.702  -3.775   9.907  0.00  0.00    -0.246 OA
ATOM     64  OE1 GLU A   2       1.992  -4.322   7.799  0.00  0.00    -0.246 OA
ENDBRANCH  61  62
ENDBRANCH  60  61
ENDBRANCH  52  60
ENDBRANCH  48  52
ENDBRANCH  47  50
BRANCH  47  65
ATOM     65  CB  PHE A   3      -2.470  -5.026   2.558  0.00  0.00    +0.055 C 
BRANCH  65  66
ATOM     66  CG  PHE A   3      -1.240  -4.599   1.813  0.00  0.00    -0.020 A 
ATOM     67  CD2 PHE A   3       0.009  -5.059   2.190  0.00  0.00    -0.004 A 
ATOM     68  CE2 PHE A   3       1.141  -4.670   1.504  0.00  0.00    -0.000 A 
ATOM     69  CZ  PHE A   3       1.033  -3.814   0.427  0.00  0.00    -0.000 A 
ATOM     70  CE1 PHE A   3      -0.207  -3.349   0.040  0.00  0.00    -0.000 A 
ATOM     71  CD1 PHE A   3      -1.335  -3.741   0.730  0.00  0.00    -0.004 A 
ENDBRANCH  65  66
ENDBRANCH  47  65
ENDBRANCH  43  47
ENDBRANCH  42  45
BRANCH  42  72
ATOM     72  CB  SER A   4      -7.343  -2.222   3.849  0.00  0.00    +0.166 C 
BRANCH  72  73
ATOM     73  OG  SER A   4      -8.755  -2.333   3.803  0.00  0.00    -0.380 OA
ATOM     74  H   SER A   4      -9.056  -2.988   4.482  0.00  0.00    +0.211 HD
ENDBRANCH  72  73
ENDBRANCH  42  72
ENDBRANCH  38  42
ENDBRANCH   1  39
BRANCH   1  75
ATOM     75  CB  LEU A   5      -8.636  -7.408   1.485  0.00  0.00    +0.029 C 
BRANCH  75  76
ATOM     76  CG  LEU A   5      -8.941  -8.304   0.280  0.00  0.00    +0.002 C 
ATOM     77  CD2 LEU A   5      -8.372  -9.700   0.490  0.00  0.00    +0.000 C 
ATOM     78  CD1 LEU A   5     -10.436  -8.368  -0.005  0.00  0.00    +0.000 C 
ENDBRANCH  75  76
ENDBRANCH   1  75
TORSDOF 31
REMARK  Name = ../refined-set-2016/3efs/3efs_pocket.pdb
REMARK  231 active torsions:
REMARK  status: ('A' for Active; 'I' for Inactive)
REMARK    1  A    between atoms: _1  and  _3
REMARK    2  A    between atoms: _3  and  _4
REMARK    3  A    between atoms: _6  and  _8
REMARK    4  A    between atoms: _8  and  _9
REMARK    5  A    between atoms: _8  and  _11
REMARK    6  A    between atoms: _11  and  _12
REMARK    7  A    between atoms: _12  and  _13
REMARK    8  A    between atoms: _13  and  _14
REMARK    9  A    between atoms: _23  and  _25
REMARK   10  A    between atoms: _25  and  _26
REMARK   11  A    between atoms: _28  and  _30
REMARK   12  A    between atoms: _30  and  _31
REMARK   13  A    between atoms: _30  and  _33
REMARK   14  A    between atoms: _33  and  _34
REMARK   15  A    between atoms: _34  and  _35
REMARK   16  A    between atoms: _35  and  _36
REMARK   17  A    between atoms: _45  and  _47
REMARK   18  A    between atoms: _47  and  _48
REMARK   19  A    between atoms: _47  and  _50
REMARK   20  A    between atoms: _50  and  _51
REMARK   21  A    between atoms: _54  and  _56
REMARK   22  A    between atoms: _56  and  _57
REMARK   23  A    between atoms: _59  and  _61
REMARK   24  A    between atoms: _61  and  _62
REMARK   25  A    between atoms: _61  and  _64
REMARK   26  A    between atoms: _64  and  _65
REMARK   27  A    between atoms: _65  and  _66
REMARK   28  A    between atoms: _66  and  _67
REMARK   29  A    between atoms: _76  and  _78
REMARK   30  A    between atoms: _78  and  _79
REMARK   31  A    between atoms: _78  and  _81
REMARK   32  A    between atoms: _81  and  _82
REMARK   33  A    between atoms: _82  and  _83
REMARK   34  A    between atoms: _83  and  _84
REMARK   35  A    between atoms: _84  and  _85
REMARK   36  A    between atoms: _89  and  _91
REMARK   37  A    between atoms: _91  and  _92
REMARK   38  A    between atoms: _91  and  _94
REMARK   39  A    between atoms: _94  and  _95
REMARK   40  A    between atoms: _105  and  _107
REMARK   41  A    between atoms: _107  and  _108
REMARK   42  A    between atoms: _107  and  _110
REMARK   43  A    between atoms: _110  and  _111
REMARK   44  A    between atoms: _114  and  _116
REMARK   45  A    between atoms: _116  and  _117
REMARK   46  A    between atoms: _116  and  _119
REMARK   47  A    between atoms: _119  and  _120
REMARK   48  A    between atoms: _122  and  _124
REMARK   49  A    between atoms: _124  and  _125
REMARK   50  A    between atoms: _124  and  _127
REMARK   51  A    between atoms: _127  and  _128
REMARK   52  A    between atoms: _128  and  _129
REMARK   53  A    between atoms: _134  and  _136
REMARK   54  A    between atoms: _136  and  _137
REMARK   55  A    between atoms: _139  and  _141
REMARK   56  A    between atoms: _141  and  _142
REMARK   57  A    between atoms: _141  and  _144
REMARK   58  A    between atoms: _144  and  _145
REMARK   59  A    between atoms: _148  and  _150
REMARK   60  A    between atoms: _150  and  _151
REMARK   61  A    between atoms: _150  and  _153
REMARK   62  A    between atoms: _153  and  _154
REMARK   63  A    between atoms: _159  and  _160
REMARK   64  A    between atoms: _162  and  _164
REMARK   65  A    between atoms: _164  and  _165
REMARK   66  A    between atoms: _164  and  _167
REMARK   67  A    between atoms: _167  and  _168
REMARK   68  A    between atoms: _168  and  _169
REMARK   69  A    between atoms: _169  and  _170
REMARK   70  A    between atoms: _170  and  _171
REMARK   71  A    between atoms: _175  and  _177
REMARK   72  A    between atoms: _177  and  _178
REMARK   73  A    between atoms: _177  and  _180
REMARK   74  A    between atoms: _180  and  _181
REMARK   75  A    between atoms: _192  and  _193
REMARK   76  A    between atoms: _198  and  _200
REMARK   77  A    between atoms: _200  and  _201
REMARK   78  A    between atoms: _200  and  _203
REMARK   79  A    between atoms: _203  and  _204
REMARK   80  A    between atoms: _209  and  _211
REMARK   81  A    between atoms: _211  and  _212
REMARK   82  A    between atoms: _211  and  _214
REMARK   83  A    between atoms: _214  and  _215
REMARK   84  A    between atoms: _218  and  _220
REMARK   85  A    between atoms: _220  and  _221
REMARK   86  A    between atoms: _220  and  _223
REMARK   87  A    between atoms: _226  and  _228
REMARK   88  A    between atoms: _228  and  _229
REMARK   89  A    between atoms: _228  and  _231
REMARK   90  A    between atoms: _231  and  _232
REMARK   91  A    between atoms: _237  and  _238
REMARK   92  A    between atoms: _240  and  _242
REMARK   93  A    between atoms: _242  and  _243
REMARK   94  A    between atoms: _242  and  _245
REMARK   95  A    between atoms: _245  and  _246
REMARK   96  A    between atoms: _246  and  _247
REMARK   97  A    between atoms: _247  and  _248
REMARK   98  A    between atoms: _248  and  _249
REMARK   99  A    between atoms: _253  and  _255
REMARK  100  A    between atoms: _255  and  _256
REMARK  101  A    between atoms: _255  and  _258
REMARK  102  A    between atoms: _258  and  _259
REMARK  103  A    between atoms: _259  and  _260
REMARK  104  A    between atoms: _260  and  _261
REMARK  105  A    between atoms: _261  and  _262
REMARK  106  A    between atoms: _266  and  _268
REMARK  107  A    between atoms: _268  and  _269
REMARK  108  A    between atoms: _268  and  _271
REMARK  109  A    between atoms: _274  and  _276
REMARK  110  A    between atoms: _276  and  _277
REMARK  111  A    between atoms: _276  and  _279
REMARK  112  A    between atoms: _279  and  _280
REMARK  113  A    between atoms: _282  and  _284
REMARK  114  A    between atoms: _284  and  _285
REMARK  115  A    between atoms: _287  and  _289
REMARK  116  A    between atoms: _289  and  _290
REMARK  117  A    between atoms: _289  and  _292
REMARK  118  A    between atoms: _295  and  _297
REMARK  119  A    between atoms: _297  and  _298
REMARK  120  A    between atoms: _297  and  _300
REMARK  121  A    between atoms: _300  and  _301
REMARK  122  A    between atoms: _304  and  _306
REMARK  123  A    between atoms: _306  and  _307
REMARK  124  A    between atoms: _309  and  _311
REMARK  125  A    between atoms: _311  and  _312
REMARK  126  A    between atoms: _311  and  _314
REMARK  127  A    between atoms: _314  and  _315
REMARK  128  A    between atoms: _318  and  _320
REMARK  129  A    between atoms: _320  and  _321
REMARK  130  A    between atoms: _320  and  _323
REMARK  131  A    between atoms: _323  and  _324
REMARK  132  A    between atoms: _329  and  _331
REMARK  133  A    between atoms: _331  and  _332
REMARK  134  A    between atoms: _331  and  _334
REMARK  135  A    between atoms: _337  and  _339
REMARK  136  A    between atoms: _339  and  _340
REMARK  137  A    between atoms: _339  and  _342
REMARK  138  A    between atoms: _342  and  _343
REMARK  139  A    between atoms: _343  and  _344
REMARK  140  A    between atoms: _349  and  _351
REMARK  141  A    between atoms: _351  and  _352
REMARK  142  A    between atoms: _351  and  _354
REMARK  143  A    between atoms: _354  and  _355
REMARK  144  A    between atoms: _359  and  _360
REMARK  145  A    between atoms: _365  and  _367
REMARK  146  A    between atoms: _367  and  _368
REMARK  147  A    between atoms: _367  and  _370
REMARK  148  A    between atoms: _370  and  _371
REMARK  149  A    between atoms: _371  and  _372
REMARK  150  A    between atoms: _375  and  _377
REMARK  151  A    between atoms: _377  and  _378
REMARK  152  A    between atoms: _377  and  _380
REMARK  153  A    between atoms: _380  and  _381
REMARK  154  A    between atoms: _384  and  _386
REMARK  155  A    between atoms: _386  and  _387
REMARK  156  A    between atoms: _386  and  _389
REMARK  157  A    between atoms: _389  and  _390
REMARK  158  A    between atoms: _390  and  _391
REMARK  159  A    between atoms: _391  and  _392
REMARK  160  A    between atoms: _392  and  _393
REMARK  161  A    between atoms: _397  and  _399
REMARK  162  A    between atoms: _399  and  _400
REMARK  163  A    between atoms: _399  and  _402
REMARK  164  A    between atoms: _402  and  _403
REMARK  165  A    between atoms: _406  and  _408
REMARK  166  A    between atoms: _408  and  _409
REMARK  167  A    between atoms: _408  and  _411
REMARK  168  A    between atoms: _411  and  _412
REMARK  169  A    between atoms: _412  and  _413
REMARK  170  A    between atoms: _413  and  _414
REMARK  171  A    between atoms: _423  and  _425
REMARK  172  A    between atoms: _425  and  _426
REMARK  173  A    between atoms: _429  and  _431
REMARK  174  A    between atoms: _431  and  _432
REMARK  175  A    between atoms: _431  and  _434
REMARK  176  A    between atoms: _434  and  _435
REMARK  177  A    between atoms: _438  and  _440
REMARK  178  A    between atoms: _440  and  _441
REMARK  179  A    between atoms: _440  and  _443
REMARK  180  A    between atoms: _443  and  _444
REMARK  181  A    between atoms: _447  and  _449
REMARK  182  A    between atoms: _449  and  _450
REMARK  183  A    between atoms: _449  and  _452
REMARK  184  A    between atoms: _452  and  _453
REMARK  185  A    between atoms: _456  and  _458
REMARK  186  A    between atoms: _458  and  _459
REMARK  187  A    between atoms: _458  and  _461
REMARK  188  A    between atoms: _461  and  _462
REMARK  189  A    between atoms: _467  and  _468
REMARK  190  A    between atoms: _470  and  _472
REMARK  191  A    between atoms: _472  and  _473
REMARK  192  A    between atoms: _472  and  _475
REMARK  193  A    between atoms: _475  and  _476
REMARK  194  A    between atoms: _476  and  _477
REMARK  195  A    between atoms: _477  and  _478
REMARK  196  A    between atoms: _478  and  _479
REMARK  197  A    between atoms: _483  and  _485
REMARK  198  A    between atoms: _485  and  _486
REMARK  199  A    between atoms: _485  and  _488
REMARK  200  A    between atoms: _488  and  _489
REMARK  201  A    between atoms: _492  and  _494
REMARK  202  A    between atoms: _494  and  _495
REMARK  203  A    between atoms: _497  and  _499
REMARK  204  A    between atoms: _499  and  _500
REMARK  205  A    between atoms: _499  and  _502
REMARK  206  A    between atoms: _502  and  _503
REMARK  207  A    between atoms: _503  and  _504
REMARK  208  A    between atoms: _507  and  _509
REMARK  209  A    between atoms: _509  and  _510
REMARK  210  A    between atoms: _509  and  _512
REMARK  211  A    between atoms: _512  and  _513
REMARK  212  A    between atoms: _519  and  _521
REMARK  213  A    between atoms: _521  and  _522
REMARK  214  A    between atoms: _521  and  _524
REMARK  215  A    between atoms: _524  and  _525
REMARK  216  A    between atoms: _527  and  _529
REMARK  217  A    between atoms: _529  and  _530
REMARK  218  A    between atoms: _529  and  _532
REMARK  219  A    between atoms: _532  and  _533
REMARK  220  A    between atoms: _536  and  _538
REMARK  221  A    between atoms: _538  and  _539
REMARK  222  A    between atoms: _538  and  _541
REMARK  223  A    between atoms: _541  and  _542
REMARK  224  A    between atoms: _542  and  _543
REMARK  225  A    between atoms: _543  and  _544
REMARK  226  A    between atoms: _553  and  _555
REMARK  227  A    between atoms: _555  and  _556
REMARK  228  A    between atoms: _555  and  _558
REMARK  229  A    between atoms: _558  and  _559
REMARK  230  A    between atoms: _559  and  _560
REMARK  231  A    between atoms: _560  and  _561
REMARK                            x       y       z     vdW  Elec       q    Type
REMARK                         _______ _______ _______ _____ _____    ______ ____
ROOT
ATOM      1  O   HOH     1     -16.717   3.500  21.399  0.00  0.00    +0.000 OA
ENDROOT
TORSDOF 0
REMARK  Name = ../refined-set-2016/3efs/3efs_pocket.pdb
REMARK  231 active torsions:
REMARK  status: ('A' for Active; 'I' for Inactive)
REMARK    1  A    between atoms: _1  and  _3
REMARK    2  A    between atoms: _3  and  _4
REMARK    3  A    between atoms: _6  and  _8
REMARK    4  A    between atoms: _8  and  _9
REMARK    5  A    between atoms: _8  and  _11
REMARK    6  A    between atoms: _11  and  _12
REMARK    7  A    between atoms: _12  and  _13
REMARK    8  A    between atoms: _13  and  _14
REMARK    9  A    between atoms: _23  and  _25
REMARK   10  A    between atoms: _25  and  _26
REMARK   11  A    between atoms: _28  and  _30
REMARK   12  A    between atoms: _30  and  _31
REMARK   13  A    between atoms: _30  and  _33
REMARK   14  A    between atoms: _33  and  _34
REMARK   15  A    between atoms: _34  and  _35
REMARK   16  A    between atoms: _35  and  _36
REMARK   17  A    between atoms: _45  and  _47
REMARK   18  A    between atoms: _47  and  _48
REMARK   19  A    between atoms: _47  and  _50
REMARK   20  A    between atoms: _50  and  _51
REMARK   21  A    between atoms: _54  and  _56
REMARK   22  A    between atoms: _56  and  _57
REMARK   23  A    between atoms: _59  and  _61
REMARK   24  A    between atoms: _61  and  _62
REMARK   25  A    between atoms: _61  and  _64
REMARK   26  A    between atoms: _64  and  _65
REMARK   27  A    between atoms: _65  and  _66
REMARK   28  A    between atoms: _66  and  _67
REMARK   29  A    between atoms: _76  and  _78
REMARK   30  A    between atoms: _78  and  _79
REMARK   31  A    between atoms: _78  and  _81
REMARK   32  A    between atoms: _81  and  _82
REMARK   33  A    between atoms: _82  and  _83
REMARK   34  A    between atoms: _83  and  _84
REMARK   35  A    between atoms: _84  and  _85
REMARK   36  A    between atoms: _89  and  _91
REMARK   37  A    between atoms: _91  and  _92
REMARK   38  A    between atoms: _91  and  _94
REMARK   39  A    between atoms: _94  and  _95
REMARK   40  A    between atoms: _105  and  _107
REMARK   41  A    between atoms: _107  and  _108
REMARK   42  A    between atoms: _107  and  _110
REMARK   43  A    between atoms: _110  and  _111
REMARK   44  A    between atoms: _114  and  _116
REMARK   45  A    between atoms: _116  and  _117
REMARK   46  A    between atoms: _116  and  _119
REMARK   47  A    between atoms: _119  and  _120
REMARK   48  A    between atoms: _122  and  _124
REMARK   49  A    between atoms: _124  and  _125
REMARK   50  A    between atoms: _124  and  _127
REMARK   51  A    between atoms: _127  and  _128
REMARK   52  A    between atoms: _128  and  _129
REMARK   53  A    between atoms: _134  and  _136
REMARK   54  A    between atoms: _136  and  _137
REMARK   55  A    between atoms: _139  and  _141
REMARK   56  A    between atoms: _141  and  _142
REMARK   57  A    between atoms: _141  and  _144
REMARK   58  A    between atoms: _144  and  _145
REMARK   59  A    between atoms: _148  and  _150
REMARK   60  A    between atoms: _150  and  _151
REMARK   61  A    between atoms: _150  and  _153
REMARK   62  A    between atoms: _153  and  _154
REMARK   63  A    between atoms: _159  and  _160
REMARK   64  A    between atoms: _162  and  _164
REMARK   65  A    between atoms: _164  and  _165
REMARK   66  A    between atoms: _164  and  _167
REMARK   67  A    between atoms: _167  and  _168
REMARK   68  A    between atoms: _168  and  _169
REMARK   69  A    between atoms: _169  and  _170
REMARK   70  A    between atoms: _170  and  _171
REMARK   71  A    between atoms: _175  and  _177
REMARK   72  A    between atoms: _177  and  _178
REMARK   73  A    between atoms: _177  and  _180
REMARK   74  A    between atoms: _180  and  _181
REMARK   75  A    between atoms: _192  and  _193
REMARK   76  A    between atoms: _198  and  _200
REMARK   77  A    between atoms: _200  and  _201
REMARK   78  A    between atoms: _200  and  _203
REMARK   79  A    between atoms: _203  and  _204
REMARK   80  A    between atoms: _209  and  _211
REMARK   81  A    between atoms: _211  and  _212
REMARK   82  A    between atoms: _211  and  _214
REMARK   83  A    between atoms: _214  and  _215
REMARK   84  A    between atoms: _218  and  _220
REMARK   85  A    between atoms: _220  and  _221
REMARK   86  A    between atoms: _220  and  _223
REMARK   87  A    between atoms: _226  and  _228
REMARK   88  A    between atoms: _228  and  _229
REMARK   89  A    between atoms: _228  and  _231
REMARK   90  A    between atoms: _231  and  _232
REMARK   91  A    between atoms: _237  and  _238
REMARK   92  A    between atoms: _240  and  _242
REMARK   93  A    between atoms: _242  and  _243
REMARK   94  A    between atoms: _242  and  _245
REMARK   95  A    between atoms: _245  and  _246
REMARK   96  A    between atoms: _246  and  _247
REMARK   97  A    between atoms: _247  and  _248
REMARK   98  A    between atoms: _248  and  _249
REMARK   99  A    between atoms: _253  and  _255
REMARK  100  A    between atoms: _255  and  _256
REMARK  101  A    between atoms: _255  and  _258
REMARK  102  A    between atoms: _258  and  _259
REMARK  103  A    between atoms: _259  and  _260
REMARK  104  A    between atoms: _260  and  _261
REMARK  105  A    between atoms: _261  and  _262
REMARK  106  A    between atoms: _266  and  _268
REMARK  107  A    between atoms: _268  and  _269
REMARK  108  A    between atoms: _268  and  _271
REMARK  109  A    between atoms: _274  and  _276
REMARK  110  A    between atoms: _276  and  _277
REMARK  111  A    between atoms: _276  and  _279
REMARK  112  A    between atoms: _279  and  _280
REMARK  113  A    between atoms: _282  and  _284
REMARK  114  A    between atoms: _284  and  _285
REMARK  115  A    between atoms: _287  and  _289
REMARK  116  A    between atoms: _289  and  _290
REMARK  117  A    between atoms: _289  and  _292
REMARK  118  A    between atoms: _295  and  _297
REMARK  119  A    between atoms: _297  and  _298
REMARK  120  A    between atoms: _297  and  _300
REMARK  121  A    between atoms: _300  and  _301
REMARK  122  A    between atoms: _304  and  _306
REMARK  123  A    between atoms: _306  and  _307
REMARK  124  A    between atoms: _309  and  _311
REMARK  125  A    between atoms: _311  and  _312
REMARK  126  A    between atoms: _311  and  _314
REMARK  127  A    between atoms: _314  and  _315
REMARK  128  A    between atoms: _318  and  _320
REMARK  129  A    between atoms: _320  and  _321
REMARK  130  A    between atoms: _320  and  _323
REMARK  131  A    between atoms: _323  and  _324
REMARK  132  A    between atoms: _329  and  _331
REMARK  133  A    between atoms: _331  and  _332
REMARK  134  A    between atoms: _331  and  _334
REMARK  135  A    between atoms: _337  and  _339
REMARK  136  A    between atoms: _339  and  _340
REMARK  137  A    between atoms: _339  and  _342
REMARK  138  A    between atoms: _342  and  _343
REMARK  139  A    between atoms: _343  and  _344
REMARK  140  A    between atoms: _349  and  _351
REMARK  141  A    between atoms: _351  and  _352
REMARK  142  A    between atoms: _351  and  _354
REMARK  143  A    between atoms: _354  and  _355
REMARK  144  A    between atoms: _359  and  _360
REMARK  145  A    between atoms: _365  and  _367
REMARK  146  A    between atoms: _367  and  _368
REMARK  147  A    between atoms: _367  and  _370
REMARK  148  A    between atoms: _370  and  _371
REMARK  149  A    between atoms: _371  and  _372
REMARK  150  A    between atoms: _375  and  _377
REMARK  151  A    between atoms: _377  and  _378
REMARK  152  A    between atoms: _377  and  _380
REMARK  153  A    between atoms: _380  and  _381
REMARK  154  A    between atoms: _384  and  _386
REMARK  155  A    between atoms: _386  and  _387
REMARK  156  A    between atoms: _386  and  _389
REMARK  157  A    between atoms: _389  and  _390
REMARK  158  A    between atoms: _390  and  _391
REMARK  159  A    between atoms: _391  and  _392
REMARK  160  A    between atoms: _392  and  _393
REMARK  161  A    between atoms: _397  and  _399
REMARK  162  A    between atoms: _399  and  _400
REMARK  163  A    between atoms: _399  and  _402
REMARK  164  A    between atoms: _402  and  _403
REMARK  165  A    between atoms: _406  and  _408
REMARK  166  A    between atoms: _408  and  _409
REMARK  167  A    between atoms: _408  and  _411
REMARK  168  A    between atoms: _411  and  _412
REMARK  169  A    between atoms: _412  and  _413
REMARK  170  A    between atoms: _413  and  _414
REMARK  171  A    between atoms: _423  and  _425
REMARK  172  A    between atoms: _425  and  _426
REMARK  173  A    between atoms: _429  and  _431
REMARK  174  A    between atoms: _431  and  _432
REMARK  175  A    between atoms: _431  and  _434
REMARK  176  A    between atoms: _434  and  _435
REMARK  177  A    between atoms: _438  and  _440
REMARK  178  A    between atoms: _440  and  _441
REMARK  179  A    between atoms: _440  and  _443
REMARK  180  A    between atoms: _443  and  _444
REMARK  181  A    between atoms: _447  and  _449
REMARK  182  A    between atoms: _449  and  _450
REMARK  183  A    between atoms: _449  and  _452
REMARK  184  A    between atoms: _452  and  _453
REMARK  185  A    between atoms: _456  and  _458
REMARK  186  A    between atoms: _458  and  _459
REMARK  187  A    between atoms: _458  and  _461
REMARK  188  A    between atoms: _461  and  _462
REMARK  189  A    between atoms: _467  and  _468
REMARK  190  A    between atoms: _470  and  _472
REMARK  191  A    between atoms: _472  and  _473
REMARK  192  A    between atoms: _472  and  _475
REMARK  193  A    between atoms: _475  and  _476
REMARK  194  A    between atoms: _476  and  _477
REMARK  195  A    between atoms: _477  and  _478
REMARK  196  A    between atoms: _478  and  _479
REMARK  197  A    between atoms: _483  and  _485
REMARK  198  A    between atoms: _485  and  _486
REMARK  199  A    between atoms: _485  and  _488
REMARK  200  A    between atoms: _488  and  _489
REMARK  201  A    between atoms: _492  and  _494
REMARK  202  A    between atoms: _494  and  _495
REMARK  203  A    between atoms: _497  and  _499
REMARK  204  A    between atoms: _499  and  _500
REMARK  205  A    between atoms: _499  and  _502
REMARK  206  A    between atoms: _502  and  _503
REMARK  207  A    between atoms: _503  and  _504
REMARK  208  A    between atoms: _507  and  _509
REMARK  209  A    between atoms: _509  and  _510
REMARK  210  A    between atoms: _509  and  _512
REMARK  211  A    between atoms: _512  and  _513
REMARK  212  A    between atoms: _519  and  _521
REMARK  213  A    between atoms: _521  and  _522
REMARK  214  A    between atoms: _521  and  _524
REMARK  215  A    between atoms: _524  and  _525
REMARK  216  A    between atoms: _527  and  _529
REMARK  217  A    between atoms: _529  and  _530
REMARK  218  A    between atoms: _529  and  _532
REMARK  219  A    between atoms: _532  and  _533
REMARK  220  A    between atoms: _536  and  _538
REMARK  221  A    between atoms: _538  and  _539
REMARK  222  A    between atoms: _538  and  _541
REMARK  223  A    between atoms: _541  and  _542
REMARK  224  A    between atoms: _542  and  _543
REMARK  225  A    between atoms: _543  and  _544
REMARK  226  A    between atoms: _553  and  _555
REMARK  227  A    between atoms: _555  and  _556
REMARK  228  A    between atoms: _555  and  _558
REMARK  229  A    between atoms: _558  and  _559
REMARK  230  A    between atoms: _559  and  _560
REMARK  231  A    between atoms: _560  and  _561
REMARK                            x       y       z     vdW  Elec       q    Type
REMARK                         _______ _______ _______ _____ _____    ______ ____
ROOT
ATOM      1  O   HOH     1     -22.196  -1.030  18.733  0.00  0.00    +0.000 OA
ENDROOT
TORSDOF 0
REMARK  Name = ../refined-set-2016/3efs/3efs_pocket.pdb
REMARK  231 active torsions:
REMARK  status: ('A' for Active; 'I' for Inactive)
REMARK    1  A    between atoms: _1  and  _3
REMARK    2  A    between atoms: _3  and  _4
REMARK    3  A    between atoms: _6  and  _8
REMARK    4  A    between atoms: _8  and  _9
REMARK    5  A    between atoms: _8  and  _11
REMARK    6  A    between atoms: _11  and  _12
REMARK    7  A    between atoms: _12  and  _13
REMARK    8  A    between atoms: _13  and  _14
REMARK    9  A    between atoms: _23  and  _25
REMARK   10  A    between atoms: _25  and  _26
REMARK   11  A    between atoms: _28  and  _30
REMARK   12  A    between atoms: _30  and  _31
REMARK   13  A    between atoms: _30  and  _33
REMARK   14  A    between atoms: _33  and  _34
REMARK   15  A    between atoms: _34  and  _35
REMARK   16  A    between atoms: _35  and  _36
REMARK   17  A    between atoms: _45  and  _47
REMARK   18  A    between atoms: _47  and  _48
REMARK   19  A    between atoms: _47  and  _50
REMARK   20  A    between atoms: _50  and  _51
REMARK   21  A    between atoms: _54  and  _56
REMARK   22  A    between atoms: _56  and  _57
REMARK   23  A    between atoms: _59  and  _61
REMARK   24  A    between atoms: _61  and  _62
REMARK   25  A    between atoms: _61  and  _64
REMARK   26  A    between atoms: _64  and  _65
REMARK   27  A    between atoms: _65  and  _66
REMARK   28  A    between atoms: _66  and  _67
REMARK   29  A    between atoms: _76  and  _78
REMARK   30  A    between atoms: _78  and  _79
REMARK   31  A    between atoms: _78  and  _81
REMARK   32  A    between atoms: _81  and  _82
REMARK   33  A    between atoms: _82  and  _83
REMARK   34  A    between atoms: _83  and  _84
REMARK   35  A    between atoms: _84  and  _85
REMARK   36  A    between atoms: _89  and  _91
REMARK   37  A    between atoms: _91  and  _92
REMARK   38  A    between atoms: _91  and  _94
REMARK   39  A    between atoms: _94  and  _95
REMARK   40  A    between atoms: _105  and  _107
REMARK   41  A    between atoms: _107  and  _108
REMARK   42  A    between atoms: _107  and  _110
REMARK   43  A    between atoms: _110  and  _111
REMARK   44  A    between atoms: _114  and  _116
REMARK   45  A    between atoms: _116  and  _117
REMARK   46  A    between atoms: _116  and  _119
REMARK   47  A    between atoms: _119  and  _120
REMARK   48  A    between atoms: _122  and  _124
REMARK   49  A    between atoms: _124  and  _125
REMARK   50  A    between atoms: _124  and  _127
REMARK   51  A    between atoms: _127  and  _128
REMARK   52  A    between atoms: _128  and  _129
REMARK   53  A    between atoms: _134  and  _136
REMARK   54  A    between atoms: _136  and  _137
REMARK   55  A    between atoms: _139  and  _141
REMARK   56  A    between atoms: _141  and  _142
REMARK   57  A    between atoms: _141  and  _144
REMARK   58  A    between atoms: _144  and  _145
REMARK   59  A    between atoms: _148  and  _150
REMARK   60  A    between atoms: _150  and  _151
REMARK   61  A    between atoms: _150  and  _153
REMARK   62  A    between atoms: _153  and  _154
REMARK   63  A    between atoms: _159  and  _160
REMARK   64  A    between atoms: _162  and  _164
REMARK   65  A    between atoms: _164  and  _165
REMARK   66  A    between atoms: _164  and  _167
REMARK   67  A    between atoms: _167  and  _168
REMARK   68  A    between atoms: _168  and  _169
REMARK   69  A    between atoms: _169  and  _170
REMARK   70  A    between atoms: _170  and  _171
REMARK   71  A    between atoms: _175  and  _177
REMARK   72  A    between atoms: _177  and  _178
REMARK   73  A    between atoms: _177  and  _180
REMARK   74  A    between atoms: _180  and  _181
REMARK   75  A    between atoms: _192  and  _193
REMARK   76  A    between atoms: _198  and  _200
REMARK   77  A    between atoms: _200  and  _201
REMARK   78  A    between atoms: _200  and  _203
REMARK   79  A    between atoms: _203  and  _204
REMARK   80  A    between atoms: _209  and  _211
REMARK   81  A    between atoms: _211  and  _212
REMARK   82  A    between atoms: _211  and  _214
REMARK   83  A    between atoms: _214  and  _215
REMARK   84  A    between atoms: _218  and  _220
REMARK   85  A    between atoms: _220  and  _221
REMARK   86  A    between atoms: _220  and  _223
REMARK   87  A    between atoms: _226  and  _228
REMARK   88  A    between atoms: _228  and  _229
REMARK   89  A    between atoms: _228  and  _231
REMARK   90  A    between atoms: _231  and  _232
REMARK   91  A    between atoms: _237  and  _238
REMARK   92  A    between atoms: _240  and  _242
REMARK   93  A    between atoms: _242  and  _243
REMARK   94  A    between atoms: _242  and  _245
REMARK   95  A    between atoms: _245  and  _246
REMARK   96  A    between atoms: _246  and  _247
REMARK   97  A    between atoms: _247  and  _248
REMARK   98  A    between atoms: _248  and  _249
REMARK   99  A    between atoms: _253  and  _255
REMARK  100  A    between atoms: _255  and  _256
REMARK  101  A    between atoms: _255  and  _258
REMARK  102  A    between atoms: _258  and  _259
REMARK  103  A    between atoms: _259  and  _260
REMARK  104  A    between atoms: _260  and  _261
REMARK  105  A    between atoms: _261  and  _262
REMARK  106  A    between atoms: _266  and  _268
REMARK  107  A    between atoms: _268  and  _269
REMARK  108  A    between atoms: _268  and  _271
REMARK  109  A    between atoms: _274  and  _276
REMARK  110  A    between atoms: _276  and  _277
REMARK  111  A    between atoms: _276  and  _279
REMARK  112  A    between atoms: _279  and  _280
REMARK  113  A    between atoms: _282  and  _284
REMARK  114  A    between atoms: _284  and  _285
REMARK  115  A    between atoms: _287  and  _289
REMARK  116  A    between atoms: _289  and  _290
REMARK  117  A    between atoms: _289  and  _292
REMARK  118  A    between atoms: _295  and  _297
REMARK  119  A    between atoms: _297  and  _298
REMARK  120  A    between atoms: _297  and  _300
REMARK  121  A    between atoms: _300  and  _301
REMARK  122  A    between atoms: _304  and  _306
REMARK  123  A    between atoms: _306  and  _307
REMARK  124  A    between atoms: _309  and  _311
REMARK  125  A    between atoms: _311  and  _312
REMARK  126  A    between atoms: _311  and  _314
REMARK  127  A    between atoms: _314  and  _315
REMARK  128  A    between atoms: _318  and  _320
REMARK  129  A    between atoms: _320  and  _321
REMARK  130  A    between atoms: _320  and  _323
REMARK  131  A    between atoms: _323  and  _324
REMARK  132  A    between atoms: _329  and  _331
REMARK  133  A    between atoms: _331  and  _332
REMARK  134  A    between atoms: _331  and  _334
REMARK  135  A    between atoms: _337  and  _339
REMARK  136  A    between atoms: _339  and  _340
REMARK  137  A    between atoms: _339  and  _342
REMARK  138  A    between atoms: _342  and  _343
REMARK  139  A    between atoms: _343  and  _344
REMARK  140  A    between atoms: _349  and  _351
REMARK  141  A    between atoms: _351  and  _352
REMARK  142  A    between atoms: _351  and  _354
REMARK  143  A    between atoms: _354  and  _355
REMARK  144  A    between atoms: _359  and  _360
REMARK  145  A    between atoms: _365  and  _367
REMARK  146  A    between atoms: _367  and  _368
REMARK  147  A    between atoms: _367  and  _370
REMARK  148  A    between atoms: _370  and  _371
REMARK  149  A    between atoms: _371  and  _372
REMARK  150  A    between atoms: _375  and  _377
REMARK  151  A    between atoms: _377  and  _378
REMARK  152  A    between atoms: _377  and  _380
REMARK  153  A    between atoms: _380  and  _381
REMARK  154  A    between atoms: _384  and  _386
REMARK  155  A    between atoms: _386  and  _387
REMARK  156  A    between atoms: _386  and  _389
REMARK  157  A    between atoms: _389  and  _390
REMARK  158  A    between atoms: _390  and  _391
REMARK  159  A    between atoms: _391  and  _392
REMARK  160  A    between atoms: _392  and  _393
REMARK  161  A    between atoms: _397  and  _399
REMARK  162  A    between atoms: _399  and  _400
REMARK  163  A    between atoms: _399  and  _402
REMARK  164  A    between atoms: _402  and  _403
REMARK  165  A    between atoms: _406  and  _408
REMARK  166  A    between atoms: _408  and  _409
REMARK  167  A    between atoms: _408  and  _411
REMARK  168  A    between atoms: _411  and  _412
REMARK  169  A    between atoms: _412  and  _413
REMARK  170  A    between atoms: _413  and  _414
REMARK  171  A    between atoms: _423  and  _425
REMARK  172  A    between atoms: _425  and  _426
REMARK  173  A    between atoms: _429  and  _431
REMARK  174  A    between atoms: _431  and  _432
REMARK  175  A    between atoms: _431  and  _434
REMARK  176  A    between atoms: _434  and  _435
REMARK  177  A    between atoms: _438  and  _440
REMARK  178  A    between atoms: _440  and  _441
REMARK  179  A    between atoms: _440  and  _443
REMARK  180  A    between atoms: _443  and  _444
REMARK  181  A    between atoms: _447  and  _449
REMARK  182  A    between atoms: _449  and  _450
REMARK  183  A    between atoms: _449  and  _452
REMARK  184  A    between atoms: _452  and  _453
REMARK  185  A    between atoms: _456  and  _458
REMARK  186  A    between atoms: _458  and  _459
REMARK  187  A    between atoms: _458  and  _461
REMARK  188  A    between atoms: _461  and  _462
REMARK  189  A    between atoms: _467  and  _468
REMARK  190  A    between atoms: _470  and  _472
REMARK  191  A    between atoms: _472  and  _473
REMARK  192  A    between atoms: _472  and  _475
REMARK  193  A    between atoms: _475  and  _476
REMARK  194  A    between atoms: _476  and  _477
REMARK  195  A    between atoms: _477  and  _478
REMARK  196  A    between atoms: _478  and  _479
REMARK  197  A    between atoms: _483  and  _485
REMARK  198  A    between atoms: _485  and  _486
REMARK  199  A    between atoms: _485  and  _488
REMARK  200  A    between atoms: _488  and  _489
REMARK  201  A    between atoms: _492  and  _494
REMARK  202  A    between atoms: _494  and  _495
REMARK  203  A    between atoms: _497  and  _499
REMARK  204  A    between atoms: _499  and  _500
REMARK  205  A    between atoms: _499  and  _502
REMARK  206  A    between atoms: _502  and  _503
REMARK  207  A    between atoms: _503  and  _504
REMARK  208  A    between atoms: _507  and  _509
REMARK  209  A    between atoms: _509  and  _510
REMARK  210  A    between atoms: _509  and  _512
REMARK  211  A    between atoms: _512  and  _513
REMARK  212  A    between atoms: _519  and  _521
REMARK  213  A    between atoms: _521  and  _522
REMARK  214  A    between atoms: _521  and  _524
REMARK  215  A    between atoms: _524  and  _525
REMARK  216  A    between atoms: _527  and  _529
REMARK  217  A    between atoms: _529  and  _530
REMARK  218  A    between atoms: _529  and  _532
REMARK  219  A    between atoms: _532  and  _533
REMARK  220  A    between atoms: _536  and  _538
REMARK  221  A    between atoms: _538  and  _539
REMARK  222  A    between atoms: _538  and  _541
REMARK  223  A    between atoms: _541  and  _542
REMARK  224  A    between atoms: _542  and  _543
REMARK  225  A    between atoms: _543  and  _544
REMARK  226  A    between atoms: _553  and  _555
REMARK  227  A    between atoms: _555  and  _556
REMARK  228  A    between atoms: _555  and  _558
REMARK  229  A    between atoms: _558  and  _559
REMARK  230  A    between atoms: _559  and  _560
REMARK  231  A    between atoms: _560  and  _561
REMARK                            x       y       z     vdW  Elec       q    Type
REMARK                         _______ _______ _______ _____ _____    ______ ____
ROOT
ATOM      1  O   HOH     1     -18.757  -5.475  18.211  0.00  0.00    +0.000 OA
ENDROOT
TORSDOF 0
REMARK  Name = ../refined-set-2016/3efs/3efs_pocket.pdb
REMARK  231 active torsions:
REMARK  status: ('A' for Active; 'I' for Inactive)
REMARK    1  A    between atoms: _1  and  _3
REMARK    2  A    between atoms: _3  and  _4
REMARK    3  A    between atoms: _6  and  _8
REMARK    4  A    between atoms: _8  and  _9
REMARK    5  A    between atoms: _8  and  _11
REMARK    6  A    between atoms: _11  and  _12
REMARK    7  A    between atoms: _12  and  _13
REMARK    8  A    between atoms: _13  and  _14
REMARK    9  A    between atoms: _23  and  _25
REMARK   10  A    between atoms: _25  and  _26
REMARK   11  A    between atoms: _28  and  _30
REMARK   12  A    between atoms: _30  and  _31
REMARK   13  A    between atoms: _30  and  _33
REMARK   14  A    between atoms: _33  and  _34
REMARK   15  A    between atoms: _34  and  _35
REMARK   16  A    between atoms: _35  and  _36
REMARK   17  A    between atoms: _45  and  _47
REMARK   18  A    between atoms: _47  and  _48
REMARK   19  A    between atoms: _47  and  _50
REMARK   20  A    between atoms: _50  and  _51
REMARK   21  A    between atoms: _54  and  _56
REMARK   22  A    between atoms: _56  and  _57
REMARK   23  A    between atoms: _59  and  _61
REMARK   24  A    between atoms: _61  and  _62
REMARK   25  A    between atoms: _61  and  _64
REMARK   26  A    between atoms: _64  and  _65
REMARK   27  A    between atoms: _65  and  _66
REMARK   28  A    between atoms: _66  and  _67
REMARK   29  A    between atoms: _76  and  _78
REMARK   30  A    between atoms: _78  and  _79
REMARK   31  A    between atoms: _78  and  _81
REMARK   32  A    between atoms: _81  and  _82
REMARK   33  A    between atoms: _82  and  _83
REMARK   34  A    between atoms: _83  and  _84
REMARK   35  A    between atoms: _84  and  _85
REMARK   36  A    between atoms: _89  and  _91
REMARK   37  A    between atoms: _91  and  _92
REMARK   38  A    between atoms: _91  and  _94
REMARK   39  A    between atoms: _94  and  _95
REMARK   40  A    between atoms: _105  and  _107
REMARK   41  A    between atoms: _107  and  _108
REMARK   42  A    between atoms: _107  and  _110
REMARK   43  A    between atoms: _110  and  _111
REMARK   44  A    between atoms: _114  and  _116
REMARK   45  A    between atoms: _116  and  _117
REMARK   46  A    between atoms: _116  and  _119
REMARK   47  A    between atoms: _119  and  _120
REMARK   48  A    between atoms: _122  and  _124
REMARK   49  A    between atoms: _124  and  _125
REMARK   50  A    between atoms: _124  and  _127
REMARK   51  A    between atoms: _127  and  _128
REMARK   52  A    between atoms: _128  and  _129
REMARK   53  A    between atoms: _134  and  _136
REMARK   54  A    between atoms: _136  and  _137
REMARK   55  A    between atoms: _139  and  _141
REMARK   56  A    between atoms: _141  and  _142
REMARK   57  A    between atoms: _141  and  _144
REMARK   58  A    between atoms: _144  and  _145
REMARK   59  A    between atoms: _148  and  _150
REMARK   60  A    between atoms: _150  and  _151
REMARK   61  A    between atoms: _150  and  _153
REMARK   62  A    between atoms: _153  and  _154
REMARK   63  A    between atoms: _159  and  _160
REMARK   64  A    between atoms: _162  and  _164
REMARK   65  A    between atoms: _164  and  _165
REMARK   66  A    between atoms: _164  and  _167
REMARK   67  A    between atoms: _167  and  _168
REMARK   68  A    between atoms: _168  and  _169
REMARK   69  A    between atoms: _169  and  _170
REMARK   70  A    between atoms: _170  and  _171
REMARK   71  A    between atoms: _175  and  _177
REMARK   72  A    between atoms: _177  and  _178
REMARK   73  A    between atoms: _177  and  _180
REMARK   74  A    between atoms: _180  and  _181
REMARK   75  A    between atoms: _192  and  _193
REMARK   76  A    between atoms: _198  and  _200
REMARK   77  A    between atoms: _200  and  _201
REMARK   78  A    between atoms: _200  and  _203
REMARK   79  A    between atoms: _203  and  _204
REMARK   80  A    between atoms: _209  and  _211
REMARK   81  A    between atoms: _211  and  _212
REMARK   82  A    between atoms: _211  and  _214
REMARK   83  A    between atoms: _214  and  _215
REMARK   84  A    between atoms: _218  and  _220
REMARK   85  A    between atoms: _220  and  _221
REMARK   86  A    between atoms: _220  and  _223
REMARK   87  A    between atoms: _226  and  _228
REMARK   88  A    between atoms: _228  and  _229
REMARK   89  A    between atoms: _228  and  _231
REMARK   90  A    between atoms: _231  and  _232
REMARK   91  A    between atoms: _237  and  _238
REMARK   92  A    between atoms: _240  and  _242
REMARK   93  A    between atoms: _242  and  _243
REMARK   94  A    between atoms: _242  and  _245
REMARK   95  A    between atoms: _245  and  _246
REMARK   96  A    between atoms: _246  and  _247
REMARK   97  A    between atoms: _247  and  _248
REMARK   98  A    between atoms: _248  and  _249
REMARK   99  A    between atoms: _253  and  _255
REMARK  100  A    between atoms: _255  and  _256
REMARK  101  A    between atoms: _255  and  _258
REMARK  102  A    between atoms: _258  and  _259
REMARK  103  A    between atoms: _259  and  _260
REMARK  104  A    between atoms: _260  and  _261
REMARK  105  A    between atoms: _261  and  _262
REMARK  106  A    between atoms: _266  and  _268
REMARK  107  A    between atoms: _268  and  _269
REMARK  108  A    between atoms: _268  and  _271
REMARK  109  A    between atoms: _274  and  _276
REMARK  110  A    between atoms: _276  and  _277
REMARK  111  A    between atoms: _276  and  _279
REMARK  112  A    between atoms: _279  and  _280
REMARK  113  A    between atoms: _282  and  _284
REMARK  114  A    between atoms: _284  and  _285
REMARK  115  A    between atoms: _287  and  _289
REMARK  116  A    between atoms: _289  and  _290
REMARK  117  A    between atoms: _289  and  _292
REMARK  118  A    between atoms: _295  and  _297
REMARK  119  A    between atoms: _297  and  _298
REMARK  120  A    between atoms: _297  and  _300
REMARK  121  A    between atoms: _300  and  _301
REMARK  122  A    between atoms: _304  and  _306
REMARK  123  A    between atoms: _306  and  _307
REMARK  124  A    between atoms: _309  and  _311
REMARK  125  A    between atoms: _311  and  _312
REMARK  126  A    between atoms: _311  and  _314
REMARK  127  A    between atoms: _314  and  _315
REMARK  128  A    between atoms: _318  and  _320
REMARK  129  A    between atoms: _320  and  _321
REMARK  130  A    between atoms: _320  and  _323
REMARK  131  A    between atoms: _323  and  _324
REMARK  132  A    between atoms: _329  and  _331
REMARK  133  A    between atoms: _331  and  _332
REMARK  134  A    between atoms: _331  and  _334
REMARK  135  A    between atoms: _337  and  _339
REMARK  136  A    between atoms: _339  and  _340
REMARK  137  A    between atoms: _339  and  _342
REMARK  138  A    between atoms: _342  and  _343
REMARK  139  A    between atoms: _343  and  _344
REMARK  140  A    between atoms: _349  and  _351
REMARK  141  A    between atoms: _351  and  _352
REMARK  142  A    between atoms: _351  and  _354
REMARK  143  A    between atoms: _354  and  _355
REMARK  144  A    between atoms: _359  and  _360
REMARK  145  A    between atoms: _365  and  _367
REMARK  146  A    between atoms: _367  and  _368
REMARK  147  A    between atoms: _367  and  _370
REMARK  148  A    between atoms: _370  and  _371
REMARK  149  A    between atoms: _371  and  _372
REMARK  150  A    between atoms: _375  and  _377
REMARK  151  A    between atoms: _377  and  _378
REMARK  152  A    between atoms: _377  and  _380
REMARK  153  A    between atoms: _380  and  _381
REMARK  154  A    between atoms: _384  and  _386
REMARK  155  A    between atoms: _386  and  _387
REMARK  156  A    between atoms: _386  and  _389
REMARK  157  A    between atoms: _389  and  _390
REMARK  158  A    between atoms: _390  and  _391
REMARK  159  A    between atoms: _391  and  _392
REMARK  160  A    between atoms: _392  and  _393
REMARK  161  A    between atoms: _397  and  _399
REMARK  162  A    between atoms: _399  and  _400
REMARK  163  A    between atoms: _399  and  _402
REMARK  164  A    between atoms: _402  and  _403
REMARK  165  A    between atoms: _406  and  _408
REMARK  166  A    between atoms: _408  and  _409
REMARK  167  A    between atoms: _408  and  _411
REMARK  168  A    between atoms: _411  and  _412
REMARK  169  A    between atoms: _412  and  _413
REMARK  170  A    between atoms: _413  and  _414
REMARK  171  A    between atoms: _423  and  _425
REMARK  172  A    between atoms: _425  and  _426
REMARK  173  A    between atoms: _429  and  _431
REMARK  174  A    between atoms: _431  and  _432
REMARK  175  A    between atoms: _431  and  _434
REMARK  176  A    between atoms: _434  and  _435
REMARK  177  A    between atoms: _438  and  _440
REMARK  178  A    between atoms: _440  and  _441
REMARK  179  A    between atoms: _440  and  _443
REMARK  180  A    between atoms: _443  and  _444
REMARK  181  A    between atoms: _447  and  _449
REMARK  182  A    between atoms: _449  and  _450
REMARK  183  A    between atoms: _449  and  _452
REMARK  184  A    between atoms: _452  and  _453
REMARK  185  A    between atoms: _456  and  _458
REMARK  186  A    between atoms: _458  and  _459
REMARK  187  A    between atoms: _458  and  _461
REMARK  188  A    between atoms: _461  and  _462
REMARK  189  A    between atoms: _467  and  _468
REMARK  190  A    between atoms: _470  and  _472
REMARK  191  A    between atoms: _472  and  _473
REMARK  192  A    between atoms: _472  and  _475
REMARK  193  A    between atoms: _475  and  _476
REMARK  194  A    between atoms: _476  and  _477
REMARK  195  A    between atoms: _477  and  _478
REMARK  196  A    between atoms: _478  and  _479
REMARK  197  A    between atoms: _483  and  _485
REMARK  198  A    between atoms: _485  and  _486
REMARK  199  A    between atoms: _485  and  _488
REMARK  200  A    between atoms: _488  and  _489
REMARK  201  A    between atoms: _492  and  _494
REMARK  202  A    between atoms: _494  and  _495
REMARK  203  A    between atoms: _497  and  _499
REMARK  204  A    between atoms: _499  and  _500
REMARK  205  A    between atoms: _499  and  _502
REMARK  206  A    between atoms: _502  and  _503
REMARK  207  A    between atoms: _503  and  _504
REMARK  208  A    between atoms: _507  and  _509
REMARK  209  A    between atoms: _509  and  _510
REMARK  210  A    between atoms: _509  and  _512
REMARK  211  A    between atoms: _512  and  _513
REMARK  212  A    between atoms: _519  and  _521
REMARK  213  A    between atoms: _521  and  _522
REMARK  214  A    between atoms: _521  and  _524
REMARK  215  A    between atoms: _524  and  _525
REMARK  216  A    between atoms: _527  and  _529
REMARK  217  A    between atoms: _529  and  _530
REMARK  218  A    between atoms: _529  and  _532
REMARK  219  A    between atoms: _532  and  _533
REMARK  220  A    between atoms: _536  and  _538
REMARK  221  A    between atoms: _538  and  _539
REMARK  222  A    between atoms: _538  and  _541
REMARK  223  A    between atoms: _541  and  _542
REMARK  224  A    between atoms: _542  and  _543
REMARK  225  A    between atoms: _543  and  _544
REMARK  226  A    between atoms: _553  and  _555
REMARK  227  A    between atoms: _555  and  _556
REMARK  228  A    between atoms: _555  and  _558
REMARK  229  A    between atoms: _558  and  _559
REMARK  230  A    between atoms: _559  and  _560
REMARK  231  A    between atoms: _560  and  _561
REMARK                            x       y       z     vdW  Elec       q    Type
REMARK                         _______ _______ _______ _____ _____    ______ ____
ROOT
ATOM      1  O   HOH     1     -11.440  -6.453   6.953  0.00  0.00    +0.000 OA
ENDROOT
TORSDOF 0
REMARK  Name = ../refined-set-2016/3efs/3efs_pocket.pdb
REMARK  231 active torsions:
REMARK  status: ('A' for Active; 'I' for Inactive)
REMARK    1  A    between atoms: _1  and  _3
REMARK    2  A    between atoms: _3  and  _4
REMARK    3  A    between atoms: _6  and  _8
REMARK    4  A    between atoms: _8  and  _9
REMARK    5  A    between atoms: _8  and  _11
REMARK    6  A    between atoms: _11  and  _12
REMARK    7  A    between atoms: _12  and  _13
REMARK    8  A    between atoms: _13  and  _14
REMARK    9  A    between atoms: _23  and  _25
REMARK   10  A    between atoms: _25  and  _26
REMARK   11  A    between atoms: _28  and  _30
REMARK   12  A    between atoms: _30  and  _31
REMARK   13  A    between atoms: _30  and  _33
REMARK   14  A    between atoms: _33  and  _34
REMARK   15  A    between atoms: _34  and  _35
REMARK   16  A    between atoms: _35  and  _36
REMARK   17  A    between atoms: _45  and  _47
REMARK   18  A    between atoms: _47  and  _48
REMARK   19  A    between atoms: _47  and  _50
REMARK   20  A    between atoms: _50  and  _51
REMARK   21  A    between atoms: _54  and  _56
REMARK   22  A    between atoms: _56  and  _57
REMARK   23  A    between atoms: _59  and  _61
REMARK   24  A    between atoms: _61  and  _62
REMARK   25  A    between atoms: _61  and  _64
REMARK   26  A    between atoms: _64  and  _65
REMARK   27  A    between atoms: _65  and  _66
REMARK   28  A    between atoms: _66  and  _67
REMARK   29  A    between atoms: _76  and  _78
REMARK   30  A    between atoms: _78  and  _79
REMARK   31  A    between atoms: _78  and  _81
REMARK   32  A    between atoms: _81  and  _82
REMARK   33  A    between atoms: _82  and  _83
REMARK   34  A    between atoms: _83  and  _84
REMARK   35  A    between atoms: _84  and  _85
REMARK   36  A    between atoms: _89  and  _91
REMARK   37  A    between atoms: _91  and  _92
REMARK   38  A    between atoms: _91  and  _94
REMARK   39  A    between atoms: _94  and  _95
REMARK   40  A    between atoms: _105  and  _107
REMARK   41  A    between atoms: _107  and  _108
REMARK   42  A    between atoms: _107  and  _110
REMARK   43  A    between atoms: _110  and  _111
REMARK   44  A    between atoms: _114  and  _116
REMARK   45  A    between atoms: _116  and  _117
REMARK   46  A    between atoms: _116  and  _119
REMARK   47  A    between atoms: _119  and  _120
REMARK   48  A    between atoms: _122  and  _124
REMARK   49  A    between atoms: _124  and  _125
REMARK   50  A    between atoms: _124  and  _127
REMARK   51  A    between atoms: _127  and  _128
REMARK   52  A    between atoms: _128  and  _129
REMARK   53  A    between atoms: _134  and  _136
REMARK   54  A    between atoms: _136  and  _137
REMARK   55  A    between atoms: _139  and  _141
REMARK   56  A    between atoms: _141  and  _142
REMARK   57  A    between atoms: _141  and  _144
REMARK   58  A    between atoms: _144  and  _145
REMARK   59  A    between atoms: _148  and  _150
REMARK   60  A    between atoms: _150  and  _151
REMARK   61  A    between atoms: _150  and  _153
REMARK   62  A    between atoms: _153  and  _154
REMARK   63  A    between atoms: _159  and  _160
REMARK   64  A    between atoms: _162  and  _164
REMARK   65  A    between atoms: _164  and  _165
REMARK   66  A    between atoms: _164  and  _167
REMARK   67  A    between atoms: _167  and  _168
REMARK   68  A    between atoms: _168  and  _169
REMARK   69  A    between atoms: _169  and  _170
REMARK   70  A    between atoms: _170  and  _171
REMARK   71  A    between atoms: _175  and  _177
REMARK   72  A    between atoms: _177  and  _178
REMARK   73  A    between atoms: _177  and  _180
REMARK   74  A    between atoms: _180  and  _181
REMARK   75  A    between atoms: _192  and  _193
REMARK   76  A    between atoms: _198  and  _200
REMARK   77  A    between atoms: _200  and  _201
REMARK   78  A    between atoms: _200  and  _203
REMARK   79  A    between atoms: _203  and  _204
REMARK   80  A    between atoms: _209  and  _211
REMARK   81  A    between atoms: _211  and  _212
REMARK   82  A    between atoms: _211  and  _214
REMARK   83  A    between atoms: _214  and  _215
REMARK   84  A    between atoms: _218  and  _220
REMARK   85  A    between atoms: _220  and  _221
REMARK   86  A    between atoms: _220  and  _223
REMARK   87  A    between atoms: _226  and  _228
REMARK   88  A    between atoms: _228  and  _229
REMARK   89  A    between atoms: _228  and  _231
REMARK   90  A    between atoms: _231  and  _232
REMARK   91  A    between atoms: _237  and  _238
REMARK   92  A    between atoms: _240  and  _242
REMARK   93  A    between atoms: _242  and  _243
REMARK   94  A    between atoms: _242  and  _245
REMARK   95  A    between atoms: _245  and  _246
REMARK   96  A    between atoms: _246  and  _247
REMARK   97  A    between atoms: _247  and  _248
REMARK   98  A    between atoms: _248  and  _249
REMARK   99  A    between atoms: _253  and  _255
REMARK  100  A    between atoms: _255  and  _256
REMARK  101  A    between atoms: _255  and  _258
REMARK  102  A    between atoms: _258  and  _259
REMARK  103  A    between atoms: _259  and  _260
REMARK  104  A    between atoms: _260  and  _261
REMARK  105  A    between atoms: _261  and  _262
REMARK  106  A    between atoms: _266  and  _268
REMARK  107  A    between atoms: _268  and  _269
REMARK  108  A    between atoms: _268  and  _271
REMARK  109  A    between atoms: _274  and  _276
REMARK  110  A    between atoms: _276  and  _277
REMARK  111  A    between atoms: _276  and  _279
REMARK  112  A    between atoms: _279  and  _280
REMARK  113  A    between atoms: _282  and  _284
REMARK  114  A    between atoms: _284  and  _285
REMARK  115  A    between atoms: _287  and  _289
REMARK  116  A    between atoms: _289  and  _290
REMARK  117  A    between atoms: _289  and  _292
REMARK  118  A    between atoms: _295  and  _297
REMARK  119  A    between atoms: _297  and  _298
REMARK  120  A    between atoms: _297  and  _300
REMARK  121  A    between atoms: _300  and  _301
REMARK  122  A    between atoms: _304  and  _306
REMARK  123  A    between atoms: _306  and  _307
REMARK  124  A    between atoms: _309  and  _311
REMARK  125  A    between atoms: _311  and  _312
REMARK  126  A    between atoms: _311  and  _314
REMARK  127  A    between atoms: _314  and  _315
REMARK  128  A    between atoms: _318  and  _320
REMARK  129  A    between atoms: _320  and  _321
REMARK  130  A    between atoms: _320  and  _323
REMARK  131  A    between atoms: _323  and  _324
REMARK  132  A    between atoms: _329  and  _331
REMARK  133  A    between atoms: _331  and  _332
REMARK  134  A    between atoms: _331  and  _334
REMARK  135  A    between atoms: _337  and  _339
REMARK  136  A    between atoms: _339  and  _340
REMARK  137  A    between atoms: _339  and  _342
REMARK  138  A    between atoms: _342  and  _343
REMARK  139  A    between atoms: _343  and  _344
REMARK  140  A    between atoms: _349  and  _351
REMARK  141  A    between atoms: _351  and  _352
REMARK  142  A    between atoms: _351  and  _354
REMARK  143  A    between atoms: _354  and  _355
REMARK  144  A    between atoms: _359  and  _360
REMARK  145  A    between atoms: _365  and  _367
REMARK  146  A    between atoms: _367  and  _368
REMARK  147  A    between atoms: _367  and  _370
REMARK  148  A    between atoms: _370  and  _371
REMARK  149  A    between atoms: _371  and  _372
REMARK  150  A    between atoms: _375  and  _377
REMARK  151  A    between atoms: _377  and  _378
REMARK  152  A    between atoms: _377  and  _380
REMARK  153  A    between atoms: _380  and  _381
REMARK  154  A    between atoms: _384  and  _386
REMARK  155  A    between atoms: _386  and  _387
REMARK  156  A    between atoms: _386  and  _389
REMARK  157  A    between atoms: _389  and  _390
REMARK  158  A    between atoms: _390  and  _391
REMARK  159  A    between atoms: _391  and  _392
REMARK  160  A    between atoms: _392  and  _393
REMARK  161  A    between atoms: _397  and  _399
REMARK  162  A    between atoms: _399  and  _400
REMARK  163  A    between atoms: _399  and  _402
REMARK  164  A    between atoms: _402  and  _403
REMARK  165  A    between atoms: _406  and  _408
REMARK  166  A    between atoms: _408  and  _409
REMARK  167  A    between atoms: _408  and  _411
REMARK  168  A    between atoms: _411  and  _412
REMARK  169  A    between atoms: _412  and  _413
REMARK  170  A    between atoms: _413  and  _414
REMARK  171  A    between atoms: _423  and  _425
REMARK  172  A    between atoms: _425  and  _426
REMARK  173  A    between atoms: _429  and  _431
REMARK  174  A    between atoms: _431  and  _432
REMARK  175  A    between atoms: _431  and  _434
REMARK  176  A    between atoms: _434  and  _435
REMARK  177  A    between atoms: _438  and  _440
REMARK  178  A    between atoms: _440  and  _441
REMARK  179  A    between atoms: _440  and  _443
REMARK  180  A    between atoms: _443  and  _444
REMARK  181  A    between atoms: _447  and  _449
REMARK  182  A    between atoms: _449  and  _450
REMARK  183  A    between atoms: _449  and  _452
REMARK  184  A    between atoms: _452  and  _453
REMARK  185  A    between atoms: _456  and  _458
REMARK  186  A    between atoms: _458  and  _459
REMARK  187  A    between atoms: _458  and  _461
REMARK  188  A    between atoms: _461  and  _462
REMARK  189  A    between atoms: _467  and  _468
REMARK  190  A    between atoms: _470  and  _472
REMARK  191  A    between atoms: _472  and  _473
REMARK  192  A    between atoms: _472  and  _475
REMARK  193  A    between atoms: _475  and  _476
REMARK  194  A    between atoms: _476  and  _477
REMARK  195  A    between atoms: _477  and  _478
REMARK  196  A    between atoms: _478  and  _479
REMARK  197  A    between atoms: _483  and  _485
REMARK  198  A    between atoms: _485  and  _486
REMARK  199  A    between atoms: _485  and  _488
REMARK  200  A    between atoms: _488  and  _489
REMARK  201  A    between atoms: _492  and  _494
REMARK  202  A    between atoms: _494  and  _495
REMARK  203  A    between atoms: _497  and  _499
REMARK  204  A    between atoms: _499  and  _500
REMARK  205  A    between atoms: _499  and  _502
REMARK  206  A    between atoms: _502  and  _503
REMARK  207  A    between atoms: _503  and  _504
REMARK  208  A    between atoms: _507  and  _509
REMARK  209  A    between atoms: _509  and  _510
REMARK  210  A    between atoms: _509  and  _512
REMARK  211  A    between atoms: _512  and  _513
REMARK  212  A    between atoms: _519  and  _521
REMARK  213  A    between atoms: _521  and  _522
REMARK  214  A    between atoms: _521  and  _524
REMARK  215  A    between atoms: _524  and  _525
REMARK  216  A    between atoms: _527  and  _529
REMARK  217  A    between atoms: _529  and  _530
REMARK  218  A    between atoms: _529  and  _532
REMARK  219  A    between atoms: _532  and  _533
REMARK  220  A    between atoms: _536  and  _538
REMARK  221  A    between atoms: _538  and  _539
REMARK  222  A    between atoms: _538  and  _541
REMARK  223  A    between atoms: _541  and  _542
REMARK  224  A    between atoms: _542  and  _543
REMARK  225  A    between atoms: _543  and  _544
REMARK  226  A    between atoms: _553  and  _555
REMARK  227  A    between atoms: _555  and  _556
REMARK  228  A    between atoms: _555  and  _558
REMARK  229  A    between atoms: _558  and  _559
REMARK  230  A    between atoms: _559  and  _560
REMARK  231  A    between atoms: _560  and  _561
REMARK                            x       y       z     vdW  Elec       q    Type
REMARK                         _______ _______ _______ _____ _____    ______ ____
ROOT
ATOM      1  O   HOH     1      -6.039  -4.856   7.500  0.00  0.00    +0.000 OA
ENDROOT
TORSDOF 0
REMARK  Name = ../refined-set-2016/3efs/3efs_pocket.pdb
REMARK  231 active torsions:
REMARK  status: ('A' for Active; 'I' for Inactive)
REMARK    1  A    between atoms: _1  and  _3
REMARK    2  A    between atoms: _3  and  _4
REMARK    3  A    between atoms: _6  and  _8
REMARK    4  A    between atoms: _8  and  _9
REMARK    5  A    between atoms: _8  and  _11
REMARK    6  A    between atoms: _11  and  _12
REMARK    7  A    between atoms: _12  and  _13
REMARK    8  A    between atoms: _13  and  _14
REMARK    9  A    between atoms: _23  and  _25
REMARK   10  A    between atoms: _25  and  _26
REMARK   11  A    between atoms: _28  and  _30
REMARK   12  A    between atoms: _30  and  _31
REMARK   13  A    between atoms: _30  and  _33
REMARK   14  A    between atoms: _33  and  _34
REMARK   15  A    between atoms: _34  and  _35
REMARK   16  A    between atoms: _35  and  _36
REMARK   17  A    between atoms: _45  and  _47
REMARK   18  A    between atoms: _47  and  _48
REMARK   19  A    between atoms: _47  and  _50
REMARK   20  A    between atoms: _50  and  _51
REMARK   21  A    between atoms: _54  and  _56
REMARK   22  A    between atoms: _56  and  _57
REMARK   23  A    between atoms: _59  and  _61
REMARK   24  A    between atoms: _61  and  _62
REMARK   25  A    between atoms: _61  and  _64
REMARK   26  A    between atoms: _64  and  _65
REMARK   27  A    between atoms: _65  and  _66
REMARK   28  A    between atoms: _66  and  _67
REMARK   29  A    between atoms: _76  and  _78
REMARK   30  A    between atoms: _78  and  _79
REMARK   31  A    between atoms: _78  and  _81
REMARK   32  A    between atoms: _81  and  _82
REMARK   33  A    between atoms: _82  and  _83
REMARK   34  A    between atoms: _83  and  _84
REMARK   35  A    between atoms: _84  and  _85
REMARK   36  A    between atoms: _89  and  _91
REMARK   37  A    between atoms: _91  and  _92
REMARK   38  A    between atoms: _91  and  _94
REMARK   39  A    between atoms: _94  and  _95
REMARK   40  A    between atoms: _105  and  _107
REMARK   41  A    between atoms: _107  and  _108
REMARK   42  A    between atoms: _107  and  _110
REMARK   43  A    between atoms: _110  and  _111
REMARK   44  A    between atoms: _114  and  _116
REMARK   45  A    between atoms: _116  and  _117
REMARK   46  A    between atoms: _116  and  _119
REMARK   47  A    between atoms: _119  and  _120
REMARK   48  A    between atoms: _122  and  _124
REMARK   49  A    between atoms: _124  and  _125
REMARK   50  A    between atoms: _124  and  _127
REMARK   51  A    between atoms: _127  and  _128
REMARK   52  A    between atoms: _128  and  _129
REMARK   53  A    between atoms: _134  and  _136
REMARK   54  A    between atoms: _136  and  _137
REMARK   55  A    between atoms: _139  and  _141
REMARK   56  A    between atoms: _141  and  _142
REMARK   57  A    between atoms: _141  and  _144
REMARK   58  A    between atoms: _144  and  _145
REMARK   59  A    between atoms: _148  and  _150
REMARK   60  A    between atoms: _150  and  _151
REMARK   61  A    between atoms: _150  and  _153
REMARK   62  A    between atoms: _153  and  _154
REMARK   63  A    between atoms: _159  and  _160
REMARK   64  A    between atoms: _162  and  _164
REMARK   65  A    between atoms: _164  and  _165
REMARK   66  A    between atoms: _164  and  _167
REMARK   67  A    between atoms: _167  and  _168
REMARK   68  A    between atoms: _168  and  _169
REMARK   69  A    between atoms: _169  and  _170
REMARK   70  A    between atoms: _170  and  _171
REMARK   71  A    between atoms: _175  and  _177
REMARK   72  A    between atoms: _177  and  _178
REMARK   73  A    between atoms: _177  and  _180
REMARK   74  A    between atoms: _180  and  _181
REMARK   75  A    between atoms: _192  and  _193
REMARK   76  A    between atoms: _198  and  _200
REMARK   77  A    between atoms: _200  and  _201
REMARK   78  A    between atoms: _200  and  _203
REMARK   79  A    between atoms: _203  and  _204
REMARK   80  A    between atoms: _209  and  _211
REMARK   81  A    between atoms: _211  and  _212
REMARK   82  A    between atoms: _211  and  _214
REMARK   83  A    between atoms: _214  and  _215
REMARK   84  A    between atoms: _218  and  _220
REMARK   85  A    between atoms: _220  and  _221
REMARK   86  A    between atoms: _220  and  _223
REMARK   87  A    between atoms: _226  and  _228
REMARK   88  A    between atoms: _228  and  _229
REMARK   89  A    between atoms: _228  and  _231
REMARK   90  A    between atoms: _231  and  _232
REMARK   91  A    between atoms: _237  and  _238
REMARK   92  A    between atoms: _240  and  _242
REMARK   93  A    between atoms: _242  and  _243
REMARK   94  A    between atoms: _242  and  _245
REMARK   95  A    between atoms: _245  and  _246
REMARK   96  A    between atoms: _246  and  _247
REMARK   97  A    between atoms: _247  and  _248
REMARK   98  A    between atoms: _248  and  _249
REMARK   99  A    between atoms: _253  and  _255
REMARK  100  A    between atoms: _255  and  _256
REMARK  101  A    between atoms: _255  and  _258
REMARK  102  A    between atoms: _258  and  _259
REMARK  103  A    between atoms: _259  and  _260
REMARK  104  A    between atoms: _260  and  _261
REMARK  105  A    between atoms: _261  and  _262
REMARK  106  A    between atoms: _266  and  _268
REMARK  107  A    between atoms: _268  and  _269
REMARK  108  A    between atoms: _268  and  _271
REMARK  109  A    between atoms: _274  and  _276
REMARK  110  A    between atoms: _276  and  _277
REMARK  111  A    between atoms: _276  and  _279
REMARK  112  A    between atoms: _279  and  _280
REMARK  113  A    between atoms: _282  and  _284
REMARK  114  A    between atoms: _284  and  _285
REMARK  115  A    between atoms: _287  and  _289
REMARK  116  A    between atoms: _289  and  _290
REMARK  117  A    between atoms: _289  and  _292
REMARK  118  A    between atoms: _295  and  _297
REMARK  119  A    between atoms: _297  and  _298
REMARK  120  A    between atoms: _297  and  _300
REMARK  121  A    between atoms: _300  and  _301
REMARK  122  A    between atoms: _304  and  _306
REMARK  123  A    between atoms: _306  and  _307
REMARK  124  A    between atoms: _309  and  _311
REMARK  125  A    between atoms: _311  and  _312
REMARK  126  A    between atoms: _311  and  _314
REMARK  127  A    between atoms: _314  and  _315
REMARK  128  A    between atoms: _318  and  _320
REMARK  129  A    between atoms: _320  and  _321
REMARK  130  A    between atoms: _320  and  _323
REMARK  131  A    between atoms: _323  and  _324
REMARK  132  A    between atoms: _329  and  _331
REMARK  133  A    between atoms: _331  and  _332
REMARK  134  A    between atoms: _331  and  _334
REMARK  135  A    between atoms: _337  and  _339
REMARK  136  A    between atoms: _339  and  _340
REMARK  137  A    between atoms: _339  and  _342
REMARK  138  A    between atoms: _342  and  _343
REMARK  139  A    between atoms: _343  and  _344
REMARK  140  A    between atoms: _349  and  _351
REMARK  141  A    between atoms: _351  and  _352
REMARK  142  A    between atoms: _351  and  _354
REMARK  143  A    between atoms: _354  and  _355
REMARK  144  A    between atoms: _359  and  _360
REMARK  145  A    between atoms: _365  and  _367
REMARK  146  A    between atoms: _367  and  _368
REMARK  147  A    between atoms: _367  and  _370
REMARK  148  A    between atoms: _370  and  _371
REMARK  149  A    between atoms: _371  and  _372
REMARK  150  A    between atoms: _375  and  _377
REMARK  151  A    between atoms: _377  and  _378
REMARK  152  A    between atoms: _377  and  _380
REMARK  153  A    between atoms: _380  and  _381
REMARK  154  A    between atoms: _384  and  _386
REMARK  155  A    between atoms: _386  and  _387
REMARK  156  A    between atoms: _386  and  _389
REMARK  157  A    between atoms: _389  and  _390
REMARK  158  A    between atoms: _390  and  _391
REMARK  159  A    between atoms: _391  and  _392
REMARK  160  A    between atoms: _392  and  _393
REMARK  161  A    between atoms: _397  and  _399
REMARK  162  A    between atoms: _399  and  _400
REMARK  163  A    between atoms: _399  and  _402
REMARK  164  A    between atoms: _402  and  _403
REMARK  165  A    between atoms: _406  and  _408
REMARK  166  A    between atoms: _408  and  _409
REMARK  167  A    between atoms: _408  and  _411
REMARK  168  A    between atoms: _411  and  _412
REMARK  169  A    between atoms: _412  and  _413
REMARK  170  A    between atoms: _413  and  _414
REMARK  171  A    between atoms: _423  and  _425
REMARK  172  A    between atoms: _425  and  _426
REMARK  173  A    between atoms: _429  and  _431
REMARK  174  A    between atoms: _431  and  _432
REMARK  175  A    between atoms: _431  and  _434
REMARK  176  A    between atoms: _434  and  _435
REMARK  177  A    between atoms: _438  and  _440
REMARK  178  A    between atoms: _440  and  _441
REMARK  179  A    between atoms: _440  and  _443
REMARK  180  A    between atoms: _443  and  _444
REMARK  181  A    between atoms: _447  and  _449
REMARK  182  A    between atoms: _449  and  _450
REMARK  183  A    between atoms: _449  and  _452
REMARK  184  A    between atoms: _452  and  _453
REMARK  185  A    between atoms: _456  and  _458
REMARK  186  A    between atoms: _458  and  _459
REMARK  187  A    between atoms: _458  and  _461
REMARK  188  A    between atoms: _461  and  _462
REMARK  189  A    between atoms: _467  and  _468
REMARK  190  A    between atoms: _470  and  _472
REMARK  191  A    between atoms: _472  and  _473
REMARK  192  A    between atoms: _472  and  _475
REMARK  193  A    between atoms: _475  and  _476
REMARK  194  A    between atoms: _476  and  _477
REMARK  195  A    between atoms: _477  and  _478
REMARK  196  A    between atoms: _478  and  _479
REMARK  197  A    between atoms: _483  and  _485
REMARK  198  A    between atoms: _485  and  _486
REMARK  199  A    between atoms: _485  and  _488
REMARK  200  A    between atoms: _488  and  _489
REMARK  201  A    between atoms: _492  and  _494
REMARK  202  A    between atoms: _494  and  _495
REMARK  203  A    between atoms: _497  and  _499
REMARK  204  A    between atoms: _499  and  _500
REMARK  205  A    between atoms: _499  and  _502
REMARK  206  A    between atoms: _502  and  _503
REMARK  207  A    between atoms: _503  and  _504
REMARK  208  A    between atoms: _507  and  _509
REMARK  209  A    between atoms: _509  and  _510
REMARK  210  A    between atoms: _509  and  _512
REMARK  211  A    between atoms: _512  and  _513
REMARK  212  A    between atoms: _519  and  _521
REMARK  213  A    between atoms: _521  and  _522
REMARK  214  A    between atoms: _521  and  _524
REMARK  215  A    between atoms: _524  and  _525
REMARK  216  A    between atoms: _527  and  _529
REMARK  217  A    between atoms: _529  and  _530
REMARK  218  A    between atoms: _529  and  _532
REMARK  219  A    between atoms: _532  and  _533
REMARK  220  A    between atoms: _536  and  _538
REMARK  221  A    between atoms: _538  and  _539
REMARK  222  A    between atoms: _538  and  _541
REMARK  223  A    between atoms: _541  and  _542
REMARK  224  A    between atoms: _542  and  _543
REMARK  225  A    between atoms: _543  and  _544
REMARK  226  A    between atoms: _553  and  _555
REMARK  227  A    between atoms: _555  and  _556
REMARK  228  A    between atoms: _555  and  _558
REMARK  229  A    between atoms: _558  and  _559
REMARK  230  A    between atoms: _559  and  _560
REMARK  231  A    between atoms: _560  and  _561
REMARK                            x       y       z     vdW  Elec       q    Type
REMARK                         _______ _______ _______ _____ _____    ______ ____
ROOT
ATOM      1  O   HOH     1      -3.863  -5.002  13.833  0.00  0.00    +0.000 OA
ENDROOT
TORSDOF 0
REMARK  Name = ../refined-set-2016/3efs/3efs_pocket.pdb
REMARK  231 active torsions:
REMARK  status: ('A' for Active; 'I' for Inactive)
REMARK    1  A    between atoms: _1  and  _3
REMARK    2  A    between atoms: _3  and  _4
REMARK    3  A    between atoms: _6  and  _8
REMARK    4  A    between atoms: _8  and  _9
REMARK    5  A    between atoms: _8  and  _11
REMARK    6  A    between atoms: _11  and  _12
REMARK    7  A    between atoms: _12  and  _13
REMARK    8  A    between atoms: _13  and  _14
REMARK    9  A    between atoms: _23  and  _25
REMARK   10  A    between atoms: _25  and  _26
REMARK   11  A    between atoms: _28  and  _30
REMARK   12  A    between atoms: _30  and  _31
REMARK   13  A    between atoms: _30  and  _33
REMARK   14  A    between atoms: _33  and  _34
REMARK   15  A    between atoms: _34  and  _35
REMARK   16  A    between atoms: _35  and  _36
REMARK   17  A    between atoms: _45  and  _47
REMARK   18  A    between atoms: _47  and  _48
REMARK   19  A    between atoms: _47  and  _50
REMARK   20  A    between atoms: _50  and  _51
REMARK   21  A    between atoms: _54  and  _56
REMARK   22  A    between atoms: _56  and  _57
REMARK   23  A    between atoms: _59  and  _61
REMARK   24  A    between atoms: _61  and  _62
REMARK   25  A    between atoms: _61  and  _64
REMARK   26  A    between atoms: _64  and  _65
REMARK   27  A    between atoms: _65  and  _66
REMARK   28  A    between atoms: _66  and  _67
REMARK   29  A    between atoms: _76  and  _78
REMARK   30  A    between atoms: _78  and  _79
REMARK   31  A    between atoms: _78  and  _81
REMARK   32  A    between atoms: _81  and  _82
REMARK   33  A    between atoms: _82  and  _83
REMARK   34  A    between atoms: _83  and  _84
REMARK   35  A    between atoms: _84  and  _85
REMARK   36  A    between atoms: _89  and  _91
REMARK   37  A    between atoms: _91  and  _92
REMARK   38  A    between atoms: _91  and  _94
REMARK   39  A    between atoms: _94  and  _95
REMARK   40  A    between atoms: _105  and  _107
REMARK   41  A    between atoms: _107  and  _108
REMARK   42  A    between atoms: _107  and  _110
REMARK   43  A    between atoms: _110  and  _111
REMARK   44  A    between atoms: _114  and  _116
REMARK   45  A    between atoms: _116  and  _117
REMARK   46  A    between atoms: _116  and  _119
REMARK   47  A    between atoms: _119  and  _120
REMARK   48  A    between atoms: _122  and  _124
REMARK   49  A    between atoms: _124  and  _125
REMARK   50  A    between atoms: _124  and  _127
REMARK   51  A    between atoms: _127  and  _128
REMARK   52  A    between atoms: _128  and  _129
REMARK   53  A    between atoms: _134  and  _136
REMARK   54  A    between atoms: _136  and  _137
REMARK   55  A    between atoms: _139  and  _141
REMARK   56  A    between atoms: _141  and  _142
REMARK   57  A    between atoms: _141  and  _144
REMARK   58  A    between atoms: _144  and  _145
REMARK   59  A    between atoms: _148  and  _150
REMARK   60  A    between atoms: _150  and  _151
REMARK   61  A    between atoms: _150  and  _153
REMARK   62  A    between atoms: _153  and  _154
REMARK   63  A    between atoms: _159  and  _160
REMARK   64  A    between atoms: _162  and  _164
REMARK   65  A    between atoms: _164  and  _165
REMARK   66  A    between atoms: _164  and  _167
REMARK   67  A    between atoms: _167  and  _168
REMARK   68  A    between atoms: _168  and  _169
REMARK   69  A    between atoms: _169  and  _170
REMARK   70  A    between atoms: _170  and  _171
REMARK   71  A    between atoms: _175  and  _177
REMARK   72  A    between atoms: _177  and  _178
REMARK   73  A    between atoms: _177  and  _180
REMARK   74  A    between atoms: _180  and  _181
REMARK   75  A    between atoms: _192  and  _193
REMARK   76  A    between atoms: _198  and  _200
REMARK   77  A    between atoms: _200  and  _201
REMARK   78  A    between atoms: _200  and  _203
REMARK   79  A    between atoms: _203  and  _204
REMARK   80  A    between atoms: _209  and  _211
REMARK   81  A    between atoms: _211  and  _212
REMARK   82  A    between atoms: _211  and  _214
REMARK   83  A    between atoms: _214  and  _215
REMARK   84  A    between atoms: _218  and  _220
REMARK   85  A    between atoms: _220  and  _221
REMARK   86  A    between atoms: _220  and  _223
REMARK   87  A    between atoms: _226  and  _228
REMARK   88  A    between atoms: _228  and  _229
REMARK   89  A    between atoms: _228  and  _231
REMARK   90  A    between atoms: _231  and  _232
REMARK   91  A    between atoms: _237  and  _238
REMARK   92  A    between atoms: _240  and  _242
REMARK   93  A    between atoms: _242  and  _243
REMARK   94  A    between atoms: _242  and  _245
REMARK   95  A    between atoms: _245  and  _246
REMARK   96  A    between atoms: _246  and  _247
REMARK   97  A    between atoms: _247  and  _248
REMARK   98  A    between atoms: _248  and  _249
REMARK   99  A    between atoms: _253  and  _255
REMARK  100  A    between atoms: _255  and  _256
REMARK  101  A    between atoms: _255  and  _258
REMARK  102  A    between atoms: _258  and  _259
REMARK  103  A    between atoms: _259  and  _260
REMARK  104  A    between atoms: _260  and  _261
REMARK  105  A    between atoms: _261  and  _262
REMARK  106  A    between atoms: _266  and  _268
REMARK  107  A    between atoms: _268  and  _269
REMARK  108  A    between atoms: _268  and  _271
REMARK  109  A    between atoms: _274  and  _276
REMARK  110  A    between atoms: _276  and  _277
REMARK  111  A    between atoms: _276  and  _279
REMARK  112  A    between atoms: _279  and  _280
REMARK  113  A    between atoms: _282  and  _284
REMARK  114  A    between atoms: _284  and  _285
REMARK  115  A    between atoms: _287  and  _289
REMARK  116  A    between atoms: _289  and  _290
REMARK  117  A    between atoms: _289  and  _292
REMARK  118  A    between atoms: _295  and  _297
REMARK  119  A    between atoms: _297  and  _298
REMARK  120  A    between atoms: _297  and  _300
REMARK  121  A    between atoms: _300  and  _301
REMARK  122  A    between atoms: _304  and  _306
REMARK  123  A    between atoms: _306  and  _307
REMARK  124  A    between atoms: _309  and  _311
REMARK  125  A    between atoms: _311  and  _312
REMARK  126  A    between atoms: _311  and  _314
REMARK  127  A    between atoms: _314  and  _315
REMARK  128  A    between atoms: _318  and  _320
REMARK  129  A    between atoms: _320  and  _321
REMARK  130  A    between atoms: _320  and  _323
REMARK  131  A    between atoms: _323  and  _324
REMARK  132  A    between atoms: _329  and  _331
REMARK  133  A    between atoms: _331  and  _332
REMARK  134  A    between atoms: _331  and  _334
REMARK  135  A    between atoms: _337  and  _339
REMARK  136  A    between atoms: _339  and  _340
REMARK  137  A    between atoms: _339  and  _342
REMARK  138  A    between atoms: _342  and  _343
REMARK  139  A    between atoms: _343  and  _344
REMARK  140  A    between atoms: _349  and  _351
REMARK  141  A    between atoms: _351  and  _352
REMARK  142  A    between atoms: _351  and  _354
REMARK  143  A    between atoms: _354  and  _355
REMARK  144  A    between atoms: _359  and  _360
REMARK  145  A    between atoms: _365  and  _367
REMARK  146  A    between atoms: _367  and  _368
REMARK  147  A    between atoms: _367  and  _370
REMARK  148  A    between atoms: _370  and  _371
REMARK  149  A    between atoms: _371  and  _372
REMARK  150  A    between atoms: _375  and  _377
REMARK  151  A    between atoms: _377  and  _378
REMARK  152  A    between atoms: _377  and  _380
REMARK  153  A    between atoms: _380  and  _381
REMARK  154  A    between atoms: _384  and  _386
REMARK  155  A    between atoms: _386  and  _387
REMARK  156  A    between atoms: _386  and  _389
REMARK  157  A    between atoms: _389  and  _390
REMARK  158  A    between atoms: _390  and  _391
REMARK  159  A    between atoms: _391  and  _392
REMARK  160  A    between atoms: _392  and  _393
REMARK  161  A    between atoms: _397  and  _399
REMARK  162  A    between atoms: _399  and  _400
REMARK  163  A    between atoms: _399  and  _402
REMARK  164  A    between atoms: _402  and  _403
REMARK  165  A    between atoms: _406  and  _408
REMARK  166  A    between atoms: _408  and  _409
REMARK  167  A    between atoms: _408  and  _411
REMARK  168  A    between atoms: _411  and  _412
REMARK  169  A    between atoms: _412  and  _413
REMARK  170  A    between atoms: _413  and  _414
REMARK  171  A    between atoms: _423  and  _425
REMARK  172  A    between atoms: _425  and  _426
REMARK  173  A    between atoms: _429  and  _431
REMARK  174  A    between atoms: _431  and  _432
REMARK  175  A    between atoms: _431  and  _434
REMARK  176  A    between atoms: _434  and  _435
REMARK  177  A    between atoms: _438  and  _440
REMARK  178  A    between atoms: _440  and  _441
REMARK  179  A    between atoms: _440  and  _443
REMARK  180  A    between atoms: _443  and  _444
REMARK  181  A    between atoms: _447  and  _449
REMARK  182  A    between atoms: _449  and  _450
REMARK  183  A    between atoms: _449  and  _452
REMARK  184  A    between atoms: _452  and  _453
REMARK  185  A    between atoms: _456  and  _458
REMARK  186  A    between atoms: _458  and  _459
REMARK  187  A    between atoms: _458  and  _461
REMARK  188  A    between atoms: _461  and  _462
REMARK  189  A    between atoms: _467  and  _468
REMARK  190  A    between atoms: _470  and  _472
REMARK  191  A    between atoms: _472  and  _473
REMARK  192  A    between atoms: _472  and  _475
REMARK  193  A    between atoms: _475  and  _476
REMARK  194  A    between atoms: _476  and  _477
REMARK  195  A    between atoms: _477  and  _478
REMARK  196  A    between atoms: _478  and  _479
REMARK  197  A    between atoms: _483  and  _485
REMARK  198  A    between atoms: _485  and  _486
REMARK  199  A    between atoms: _485  and  _488
REMARK  200  A    between atoms: _488  and  _489
REMARK  201  A    between atoms: _492  and  _494
REMARK  202  A    between atoms: _494  and  _495
REMARK  203  A    between atoms: _497  and  _499
REMARK  204  A    between atoms: _499  and  _500
REMARK  205  A    between atoms: _499  and  _502
REMARK  206  A    between atoms: _502  and  _503
REMARK  207  A    between atoms: _503  and  _504
REMARK  208  A    between atoms: _507  and  _509
REMARK  209  A    between atoms: _509  and  _510
REMARK  210  A    between atoms: _509  and  _512
REMARK  211  A    between atoms: _512  and  _513
REMARK  212  A    between atoms: _519  and  _521
REMARK  213  A    between atoms: _521  and  _522
REMARK  214  A    between atoms: _521  and  _524
REMARK  215  A    between atoms: _524  and  _525
REMARK  216  A    between atoms: _527  and  _529
REMARK  217  A    between atoms: _529  and  _530
REMARK  218  A    between atoms: _529  and  _532
REMARK  219  A    between atoms: _532  and  _533
REMARK  220  A    between atoms: _536  and  _538
REMARK  221  A    between atoms: _538  and  _539
REMARK  222  A    between atoms: _538  and  _541
REMARK  223  A    between atoms: _541  and  _542
REMARK  224  A    between atoms: _542  and  _543
REMARK  225  A    between atoms: _543  and  _544
REMARK  226  A    between atoms: _553  and  _555
REMARK  227  A    between atoms: _555  and  _556
REMARK  228  A    between atoms: _555  and  _558
REMARK  229  A    between atoms: _558  and  _559
REMARK  230  A    between atoms: _559  and  _560
REMARK  231  A    between atoms: _560  and  _561
REMARK                            x       y       z     vdW  Elec       q    Type
REMARK                         _______ _______ _______ _____ _____    ______ ____
ROOT
ATOM      1  O   HOH     1     -16.209   5.358  12.256  0.00  0.00    +0.000 OA
ENDROOT
TORSDOF 0
REMARK  Name = ../refined-set-2016/3efs/3efs_pocket.pdb
REMARK  231 active torsions:
REMARK  status: ('A' for Active; 'I' for Inactive)
REMARK    1  A    between atoms: _1  and  _3
REMARK    2  A    between atoms: _3  and  _4
REMARK    3  A    between atoms: _6  and  _8
REMARK    4  A    between atoms: _8  and  _9
REMARK    5  A    between atoms: _8  and  _11
REMARK    6  A    between atoms: _11  and  _12
REMARK    7  A    between atoms: _12  and  _13
REMARK    8  A    between atoms: _13  and  _14
REMARK    9  A    between atoms: _23  and  _25
REMARK   10  A    between atoms: _25  and  _26
REMARK   11  A    between atoms: _28  and  _30
REMARK   12  A    between atoms: _30  and  _31
REMARK   13  A    between atoms: _30  and  _33
REMARK   14  A    between atoms: _33  and  _34
REMARK   15  A    between atoms: _34  and  _35
REMARK   16  A    between atoms: _35  and  _36
REMARK   17  A    between atoms: _45  and  _47
REMARK   18  A    between atoms: _47  and  _48
REMARK   19  A    between atoms: _47  and  _50
REMARK   20  A    between atoms: _50  and  _51
REMARK   21  A    between atoms: _54  and  _56
REMARK   22  A    between atoms: _56  and  _57
REMARK   23  A    between atoms: _59  and  _61
REMARK   24  A    between atoms: _61  and  _62
REMARK   25  A    between atoms: _61  and  _64
REMARK   26  A    between atoms: _64  and  _65
REMARK   27  A    between atoms: _65  and  _66
REMARK   28  A    between atoms: _66  and  _67
REMARK   29  A    between atoms: _76  and  _78
REMARK   30  A    between atoms: _78  and  _79
REMARK   31  A    between atoms: _78  and  _81
REMARK   32  A    between atoms: _81  and  _82
REMARK   33  A    between atoms: _82  and  _83
REMARK   34  A    between atoms: _83  and  _84
REMARK   35  A    between atoms: _84  and  _85
REMARK   36  A    between atoms: _89  and  _91
REMARK   37  A    between atoms: _91  and  _92
REMARK   38  A    between atoms: _91  and  _94
REMARK   39  A    between atoms: _94  and  _95
REMARK   40  A    between atoms: _105  and  _107
REMARK   41  A    between atoms: _107  and  _108
REMARK   42  A    between atoms: _107  and  _110
REMARK   43  A    between atoms: _110  and  _111
REMARK   44  A    between atoms: _114  and  _116
REMARK   45  A    between atoms: _116  and  _117
REMARK   46  A    between atoms: _116  and  _119
REMARK   47  A    between atoms: _119  and  _120
REMARK   48  A    between atoms: _122  and  _124
REMARK   49  A    between atoms: _124  and  _125
REMARK   50  A    between atoms: _124  and  _127
REMARK   51  A    between atoms: _127  and  _128
REMARK   52  A    between atoms: _128  and  _129
REMARK   53  A    between atoms: _134  and  _136
REMARK   54  A    between atoms: _136  and  _137
REMARK   55  A    between atoms: _139  and  _141
REMARK   56  A    between atoms: _141  and  _142
REMARK   57  A    between atoms: _141  and  _144
REMARK   58  A    between atoms: _144  and  _145
REMARK   59  A    between atoms: _148  and  _150
REMARK   60  A    between atoms: _150  and  _151
REMARK   61  A    between atoms: _150  and  _153
REMARK   62  A    between atoms: _153  and  _154
REMARK   63  A    between atoms: _159  and  _160
REMARK   64  A    between atoms: _162  and  _164
REMARK   65  A    between atoms: _164  and  _165
REMARK   66  A    between atoms: _164  and  _167
REMARK   67  A    between atoms: _167  and  _168
REMARK   68  A    between atoms: _168  and  _169
REMARK   69  A    between atoms: _169  and  _170
REMARK   70  A    between atoms: _170  and  _171
REMARK   71  A    between atoms: _175  and  _177
REMARK   72  A    between atoms: _177  and  _178
REMARK   73  A    between atoms: _177  and  _180
REMARK   74  A    between atoms: _180  and  _181
REMARK   75  A    between atoms: _192  and  _193
REMARK   76  A    between atoms: _198  and  _200
REMARK   77  A    between atoms: _200  and  _201
REMARK   78  A    between atoms: _200  and  _203
REMARK   79  A    between atoms: _203  and  _204
REMARK   80  A    between atoms: _209  and  _211
REMARK   81  A    between atoms: _211  and  _212
REMARK   82  A    between atoms: _211  and  _214
REMARK   83  A    between atoms: _214  and  _215
REMARK   84  A    between atoms: _218  and  _220
REMARK   85  A    between atoms: _220  and  _221
REMARK   86  A    between atoms: _220  and  _223
REMARK   87  A    between atoms: _226  and  _228
REMARK   88  A    between atoms: _228  and  _229
REMARK   89  A    between atoms: _228  and  _231
REMARK   90  A    between atoms: _231  and  _232
REMARK   91  A    between atoms: _237  and  _238
REMARK   92  A    between atoms: _240  and  _242
REMARK   93  A    between atoms: _242  and  _243
REMARK   94  A    between atoms: _242  and  _245
REMARK   95  A    between atoms: _245  and  _246
REMARK   96  A    between atoms: _246  and  _247
REMARK   97  A    between atoms: _247  and  _248
REMARK   98  A    between atoms: _248  and  _249
REMARK   99  A    between atoms: _253  and  _255
REMARK  100  A    between atoms: _255  and  _256
REMARK  101  A    between atoms: _255  and  _258
REMARK  102  A    between atoms: _258  and  _259
REMARK  103  A    between atoms: _259  and  _260
REMARK  104  A    between atoms: _260  and  _261
REMARK  105  A    between atoms: _261  and  _262
REMARK  106  A    between atoms: _266  and  _268
REMARK  107  A    between atoms: _268  and  _269
REMARK  108  A    between atoms: _268  and  _271
REMARK  109  A    between atoms: _274  and  _276
REMARK  110  A    between atoms: _276  and  _277
REMARK  111  A    between atoms: _276  and  _279
REMARK  112  A    between atoms: _279  and  _280
REMARK  113  A    between atoms: _282  and  _284
REMARK  114  A    between atoms: _284  and  _285
REMARK  115  A    between atoms: _287  and  _289
REMARK  116  A    between atoms: _289  and  _290
REMARK  117  A    between atoms: _289  and  _292
REMARK  118  A    between atoms: _295  and  _297
REMARK  119  A    between atoms: _297  and  _298
REMARK  120  A    between atoms: _297  and  _300
REMARK  121  A    between atoms: _300  and  _301
REMARK  122  A    between atoms: _304  and  _306
REMARK  123  A    between atoms: _306  and  _307
REMARK  124  A    between atoms: _309  and  _311
REMARK  125  A    between atoms: _311  and  _312
REMARK  126  A    between atoms: _311  and  _314
REMARK  127  A    between atoms: _314  and  _315
REMARK  128  A    between atoms: _318  and  _320
REMARK  129  A    between atoms: _320  and  _321
REMARK  130  A    between atoms: _320  and  _323
REMARK  131  A    between atoms: _323  and  _324
REMARK  132  A    between atoms: _329  and  _331
REMARK  133  A    between atoms: _331  and  _332
REMARK  134  A    between atoms: _331  and  _334
REMARK  135  A    between atoms: _337  and  _339
REMARK  136  A    between atoms: _339  and  _340
REMARK  137  A    between atoms: _339  and  _342
REMARK  138  A    between atoms: _342  and  _343
REMARK  139  A    between atoms: _343  and  _344
REMARK  140  A    between atoms: _349  and  _351
REMARK  141  A    between atoms: _351  and  _352
REMARK  142  A    between atoms: _351  and  _354
REMARK  143  A    between atoms: _354  and  _355
REMARK  144  A    between atoms: _359  and  _360
REMARK  145  A    between atoms: _365  and  _367
REMARK  146  A    between atoms: _367  and  _368
REMARK  147  A    between atoms: _367  and  _370
REMARK  148  A    between atoms: _370  and  _371
REMARK  149  A    between atoms: _371  and  _372
REMARK  150  A    between atoms: _375  and  _377
REMARK  151  A    between atoms: _377  and  _378
REMARK  152  A    between atoms: _377  and  _380
REMARK  153  A    between atoms: _380  and  _381
REMARK  154  A    between atoms: _384  and  _386
REMARK  155  A    between atoms: _386  and  _387
REMARK  156  A    between atoms: _386  and  _389
REMARK  157  A    between atoms: _389  and  _390
REMARK  158  A    between atoms: _390  and  _391
REMARK  159  A    between atoms: _391  and  _392
REMARK  160  A    between atoms: _392  and  _393
REMARK  161  A    between atoms: _397  and  _399
REMARK  162  A    between atoms: _399  and  _400
REMARK  163  A    between atoms: _399  and  _402
REMARK  164  A    between atoms: _402  and  _403
REMARK  165  A    between atoms: _406  and  _408
REMARK  166  A    between atoms: _408  and  _409
REMARK  167  A    between atoms: _408  and  _411
REMARK  168  A    between atoms: _411  and  _412
REMARK  169  A    between atoms: _412  and  _413
REMARK  170  A    between atoms: _413  and  _414
REMARK  171  A    between atoms: _423  and  _425
REMARK  172  A    between atoms: _425  and  _426
REMARK  173  A    between atoms: _429  and  _431
REMARK  174  A    between atoms: _431  and  _432
REMARK  175  A    between atoms: _431  and  _434
REMARK  176  A    between atoms: _434  and  _435
REMARK  177  A    between atoms: _438  and  _440
REMARK  178  A    between atoms: _440  and  _441
REMARK  179  A    between atoms: _440  and  _443
REMARK  180  A    between atoms: _443  and  _444
REMARK  181  A    between atoms: _447  and  _449
REMARK  182  A    between atoms: _449  and  _450
REMARK  183  A    between atoms: _449  and  _452
REMARK  184  A    between atoms: _452  and  _453
REMARK  185  A    between atoms: _456  and  _458
REMARK  186  A    between atoms: _458  and  _459
REMARK  187  A    between atoms: _458  and  _461
REMARK  188  A    between atoms: _461  and  _462
REMARK  189  A    between atoms: _467  and  _468
REMARK  190  A    between atoms: _470  and  _472
REMARK  191  A    between atoms: _472  and  _473
REMARK  192  A    between atoms: _472  and  _475
REMARK  193  A    between atoms: _475  and  _476
REMARK  194  A    between atoms: _476  and  _477
REMARK  195  A    between atoms: _477  and  _478
REMARK  196  A    between atoms: _478  and  _479
REMARK  197  A    between atoms: _483  and  _485
REMARK  198  A    between atoms: _485  and  _486
REMARK  199  A    between atoms: _485  and  _488
REMARK  200  A    between atoms: _488  and  _489
REMARK  201  A    between atoms: _492  and  _494
REMARK  202  A    between atoms: _494  and  _495
REMARK  203  A    between atoms: _497  and  _499
REMARK  204  A    between atoms: _499  and  _500
REMARK  205  A    between atoms: _499  and  _502
REMARK  206  A    between atoms: _502  and  _503
REMARK  207  A    between atoms: _503  and  _504
REMARK  208  A    between atoms: _507  and  _509
REMARK  209  A    between atoms: _509  and  _510
REMARK  210  A    between atoms: _509  and  _512
REMARK  211  A    between atoms: _512  and  _513
REMARK  212  A    between atoms: _519  and  _521
REMARK  213  A    between atoms: _521  and  _522
REMARK  214  A    between atoms: _521  and  _524
REMARK  215  A    between atoms: _524  and  _525
REMARK  216  A    between atoms: _527  and  _529
REMARK  217  A    between atoms: _529  and  _530
REMARK  218  A    between atoms: _529  and  _532
REMARK  219  A    between atoms: _532  and  _533
REMARK  220  A    between atoms: _536  and  _538
REMARK  221  A    between atoms: _538  and  _539
REMARK  222  A    between atoms: _538  and  _541
REMARK  223  A    between atoms: _541  and  _542
REMARK  224  A    between atoms: _542  and  _543
REMARK  225  A    between atoms: _543  and  _544
REMARK  226  A    between atoms: _553  and  _555
REMARK  227  A    between atoms: _555  and  _556
REMARK  228  A    between atoms: _555  and  _558
REMARK  229  A    between atoms: _558  and  _559
REMARK  230  A    between atoms: _559  and  _560
REMARK  231  A    between atoms: _560  and  _561
REMARK                            x       y       z     vdW  Elec       q    Type
REMARK                         _______ _______ _______ _____ _____    ______ ____
ROOT
ATOM      1  O   HOH     1     -15.243  -3.682   0.472  0.00  0.00    +0.000 OA
ENDROOT
TORSDOF 0
