REMARK  Name = ../refined-set-2016/1ydb/1ydb_pocket.pdb
REMARK  144 active torsions:
REMARK  status: ('A' for Active; 'I' for Inactive)
REMARK    1  A    between atoms: _1  and  _5
REMARK    2  A    between atoms: _5  and  _6
REMARK    3  A    between atoms: _5  and  _8
REMARK    4  A    between atoms: _8  and  _9
REMARK    5  A    between atoms: _19  and  _21
REMARK    6  A    between atoms: _21  and  _22
REMARK    7  A    between atoms: _21  and  _24
REMARK    8  A    between atoms: _24  and  _25
REMARK    9  A    between atoms: _30  and  _31
REMARK   10  A    between atoms: _33  and  _35
REMARK   11  A    between atoms: _35  and  _36
REMARK   12  A    between atoms: _35  and  _38
REMARK   13  A    between atoms: _38  and  _39
REMARK   14  A    between atoms: _42  and  _43
REMARK   15  A    between atoms: _48  and  _50
REMARK   16  A    between atoms: _50  and  _51
REMARK   17  A    between atoms: _50  and  _53
REMARK   18  A    between atoms: _53  and  _54
REMARK   19  A    between atoms: _59  and  _61
REMARK   20  A    between atoms: _61  and  _62
REMARK   21  A    between atoms: _61  and  _64
REMARK   22  A    between atoms: _64  and  _65
REMARK   23  A    between atoms: _70  and  _72
REMARK   24  A    between atoms: _72  and  _73
REMARK   25  A    between atoms: _76  and  _78
REMARK   26  A    between atoms: _78  and  _79
REMARK   27  A    between atoms: _78  and  _81
REMARK   28  A    between atoms: _81  and  _82
REMARK   29  A    between atoms: _87  and  _89
REMARK   30  A    between atoms: _89  and  _90
REMARK   31  A    between atoms: _89  and  _92
REMARK   32  A    between atoms: _92  and  _93
REMARK   33  A    between atoms: _96  and  _98
REMARK   34  A    between atoms: _98  and  _99
REMARK   35  A    between atoms: _98  and  _101
REMARK   36  A    between atoms: _101  and  _102
REMARK   37  A    between atoms: _102  and  _103
REMARK   38  A    between atoms: _108  and  _110
REMARK   39  A    between atoms: _110  and  _111
REMARK   40  A    between atoms: _110  and  _113
REMARK   41  A    between atoms: _113  and  _114
REMARK   42  A    between atoms: _120  and  _122
REMARK   43  A    between atoms: _133  and  _136
REMARK   44  A    between atoms: _136  and  _137
REMARK   45  A    between atoms: _145  and  _146
REMARK   46  A    between atoms: _154  and  _156
REMARK   47  A    between atoms: _156  and  _157
REMARK   48  A    between atoms: _156  and  _159
REMARK   49  A    between atoms: _159  and  _160
REMARK   50  A    between atoms: _160  and  _161
REMARK   51  A    between atoms: _164  and  _166
REMARK   52  A    between atoms: _166  and  _167
REMARK   53  A    between atoms: _166  and  _169
REMARK   54  A    between atoms: _169  and  _170
REMARK   55  A    between atoms: _175  and  _177
REMARK   56  A    between atoms: _177  and  _178
REMARK   57  A    between atoms: _177  and  _180
REMARK   58  A    between atoms: _180  and  _181
REMARK   59  A    between atoms: _181  and  _182
REMARK   60  A    between atoms: _185  and  _187
REMARK   61  A    between atoms: _187  and  _188
REMARK   62  A    between atoms: _187  and  _190
REMARK   63  A    between atoms: _190  and  _191
REMARK   64  A    between atoms: _194  and  _196
REMARK   65  A    between atoms: _196  and  _197
REMARK   66  A    between atoms: _196  and  _199
REMARK   67  A    between atoms: _199  and  _200
REMARK   68  A    between atoms: _201  and  ZN_412
REMARK   69  A    between atoms: _205  and  _207
REMARK   70  A    between atoms: _207  and  _208
REMARK   71  A    between atoms: _207  and  _210
REMARK   72  A    between atoms: _210  and  _211
REMARK   73  A    between atoms: _214  and  _216
REMARK   74  A    between atoms: _216  and  _217
REMARK   75  A    between atoms: _216  and  _219
REMARK   76  A    between atoms: _222  and  _224
REMARK   77  A    between atoms: _224  and  _225
REMARK   78  A    between atoms: _224  and  _227
REMARK   79  A    between atoms: _227  and  _228
REMARK   80  A    between atoms: _233  and  _235
REMARK   81  A    between atoms: _235  and  _236
REMARK   82  A    between atoms: _235  and  _238
REMARK   83  A    between atoms: _238  and  _239
REMARK   84  A    between atoms: _245  and  _247
REMARK   85  A    between atoms: _247  and  _248
REMARK   86  A    between atoms: _247  and  _250
REMARK   87  A    between atoms: _253  and  _255
REMARK   88  A    between atoms: _255  and  _256
REMARK   89  A    between atoms: _255  and  _258
REMARK   90  A    between atoms: _258  and  _259
REMARK   91  A    between atoms: _262  and  _264
REMARK   92  A    between atoms: _264  and  _265
REMARK   93  A    between atoms: _268  and  _270
REMARK   94  A    between atoms: _270  and  _271
REMARK   95  A    between atoms: _270  and  _273
REMARK   96  A    between atoms: _276  and  _278
REMARK   97  A    between atoms: _278  and  _279
REMARK   98  A    between atoms: _278  and  _281
REMARK   99  A    between atoms: _281  and  _282
REMARK  100  A    between atoms: _285  and  _287
REMARK  101  A    between atoms: _287  and  _288
REMARK  102  A    between atoms: _290  and  _292
REMARK  103  A    between atoms: _292  and  _293
REMARK  104  A    between atoms: _292  and  _295
REMARK  105  A    between atoms: _295  and  _296
REMARK  106  A    between atoms: _298  and  _300
REMARK  107  A    between atoms: _300  and  _301
REMARK  108  A    between atoms: _300  and  _303
REMARK  109  A    between atoms: _303  and  _304
REMARK  110  A    between atoms: _310  and  _312
REMARK  111  A    between atoms: _312  and  _313
REMARK  112  A    between atoms: _312  and  _315
REMARK  113  A    between atoms: _315  and  _316
REMARK  114  A    between atoms: _319  and  _321
REMARK  115  A    between atoms: _321  and  _322
REMARK  116  A    between atoms: _321  and  _324
REMARK  117  A    between atoms: _324  and  _325
REMARK  118  A    between atoms: _329  and  _330
REMARK  119  A    between atoms: _336  and  _337
REMARK  120  A    between atoms: _342  and  _344
REMARK  121  A    between atoms: _344  and  _345
REMARK  122  A    between atoms: _344  and  _347
REMARK  123  A    between atoms: _347  and  _348
REMARK  124  A    between atoms: _351  and  _353
REMARK  125  A    between atoms: _353  and  _354
REMARK  126  A    between atoms: _353  and  _356
REMARK  127  A    between atoms: _356  and  _357
REMARK  128  A    between atoms: _360  and  _362
REMARK  129  A    between atoms: _362  and  _363
REMARK  130  A    between atoms: _362  and  _365
REMARK  131  A    between atoms: _368  and  _370
REMARK  132  A    between atoms: _370  and  _371
REMARK  133  A    between atoms: _370  and  _373
REMARK  134  A    between atoms: _373  and  _374
REMARK  135  A    between atoms: _384  and  _386
REMARK  136  A    between atoms: _386  and  _387
REMARK  137  A    between atoms: _386  and  _389
REMARK  138  A    between atoms: _389  and  _390
REMARK  139  A    between atoms: _395  and  _397
REMARK  140  A    between atoms: _397  and  _398
REMARK  141  A    between atoms: _397  and  _400
REMARK  142  A    between atoms: _400  and  _401
REMARK  143  A    between atoms: _401  and  _402
REMARK  144  A    between atoms: _402  and  _403
REMARK                            x       y       z     vdW  Elec       q    Type
REMARK                         _______ _______ _______ _____ _____    ______ ____
ROOT
ATOM      1  CG  TRP A   1       5.594   0.041  12.180  0.00  0.00    -0.005 A 
ATOM      2  CD2 TRP A   1       4.311  -0.494  12.175  0.00  0.00    +0.013 A 
ATOM      3  CE3 TRP A   1       3.681  -1.691  12.474  0.00  0.00    +0.001 A 
ATOM      4  CZ3 TRP A   1       2.312  -1.781  12.310  0.00  0.00    +0.000 A 
ATOM      5  CH2 TRP A   1       1.572  -0.709  11.857  0.00  0.00    +0.001 A 
ATOM      6  CZ2 TRP A   1       2.190   0.484  11.556  0.00  0.00    +0.017 A 
ATOM      7  CE2 TRP A   1       3.564   0.582  11.720  0.00  0.00    +0.056 A 
ATOM      8  NE1 TRP A   1       4.374   1.635  11.503  0.00  0.00    -0.352 N 
ATOM      9  HE1 TRP A   1       4.048   2.563  11.165  0.00  0.00    +0.166 HD
ATOM     10  CD1 TRP A   1       5.619   1.347  11.769  0.00  0.00    +0.068 A 
ENDROOT
BRANCH   1  11
ATOM     11  CB  TRP A   1       6.893  -0.666  12.575  0.00  0.00    +0.014 C 
BRANCH  11  12
ATOM     12  CA  TRP A   1       7.669  -1.414  11.468  0.00  0.00    +0.005 C 
BRANCH  12  13
ATOM     13  N   TRP A   1       8.139  -0.500  10.441  0.00  0.00    +0.387 N 
ATOM     14  H1  TRP A   1       8.795   0.187  10.864  0.00  0.00    -0.089 HD
ATOM     15  H2  TRP A   1       7.328   0.003  10.028  0.00  0.00    -0.089 HD
ATOM     16  H3  TRP A   1       8.629  -1.038   9.698  0.00  0.00    -0.089 HD
ENDBRANCH  12  13
BRANCH  12  17
ATOM     17  C   TRP A   1       6.743  -2.316  10.661  0.00  0.00    +0.185 C 
ATOM     18  O   TRP A   1       6.404  -1.947   9.525  0.00  0.00    -0.291 OA
ENDBRANCH  12  17
ENDBRANCH  11  12
ENDBRANCH   1  11
TORSDOF 4
REMARK  Name = ../refined-set-2016/1ydb/1ydb_pocket.pdb
REMARK  144 active torsions:
REMARK  status: ('A' for Active; 'I' for Inactive)
REMARK    1  A    between atoms: _1  and  _5
REMARK    2  A    between atoms: _5  and  _6
REMARK    3  A    between atoms: _5  and  _8
REMARK    4  A    between atoms: _8  and  _9
REMARK    5  A    between atoms: _19  and  _21
REMARK    6  A    between atoms: _21  and  _22
REMARK    7  A    between atoms: _21  and  _24
REMARK    8  A    between atoms: _24  and  _25
REMARK    9  A    between atoms: _30  and  _31
REMARK   10  A    between atoms: _33  and  _35
REMARK   11  A    between atoms: _35  and  _36
REMARK   12  A    between atoms: _35  and  _38
REMARK   13  A    between atoms: _38  and  _39
REMARK   14  A    between atoms: _42  and  _43
REMARK   15  A    between atoms: _48  and  _50
REMARK   16  A    between atoms: _50  and  _51
REMARK   17  A    between atoms: _50  and  _53
REMARK   18  A    between atoms: _53  and  _54
REMARK   19  A    between atoms: _59  and  _61
REMARK   20  A    between atoms: _61  and  _62
REMARK   21  A    between atoms: _61  and  _64
REMARK   22  A    between atoms: _64  and  _65
REMARK   23  A    between atoms: _70  and  _72
REMARK   24  A    between atoms: _72  and  _73
REMARK   25  A    between atoms: _76  and  _78
REMARK   26  A    between atoms: _78  and  _79
REMARK   27  A    between atoms: _78  and  _81
REMARK   28  A    between atoms: _81  and  _82
REMARK   29  A    between atoms: _87  and  _89
REMARK   30  A    between atoms: _89  and  _90
REMARK   31  A    between atoms: _89  and  _92
REMARK   32  A    between atoms: _92  and  _93
REMARK   33  A    between atoms: _96  and  _98
REMARK   34  A    between atoms: _98  and  _99
REMARK   35  A    between atoms: _98  and  _101
REMARK   36  A    between atoms: _101  and  _102
REMARK   37  A    between atoms: _102  and  _103
REMARK   38  A    between atoms: _108  and  _110
REMARK   39  A    between atoms: _110  and  _111
REMARK   40  A    between atoms: _110  and  _113
REMARK   41  A    between atoms: _113  and  _114
REMARK   42  A    between atoms: _120  and  _122
REMARK   43  A    between atoms: _133  and  _136
REMARK   44  A    between atoms: _136  and  _137
REMARK   45  A    between atoms: _145  and  _146
REMARK   46  A    between atoms: _154  and  _156
REMARK   47  A    between atoms: _156  and  _157
REMARK   48  A    between atoms: _156  and  _159
REMARK   49  A    between atoms: _159  and  _160
REMARK   50  A    between atoms: _160  and  _161
REMARK   51  A    between atoms: _164  and  _166
REMARK   52  A    between atoms: _166  and  _167
REMARK   53  A    between atoms: _166  and  _169
REMARK   54  A    between atoms: _169  and  _170
REMARK   55  A    between atoms: _175  and  _177
REMARK   56  A    between atoms: _177  and  _178
REMARK   57  A    between atoms: _177  and  _180
REMARK   58  A    between atoms: _180  and  _181
REMARK   59  A    between atoms: _181  and  _182
REMARK   60  A    between atoms: _185  and  _187
REMARK   61  A    between atoms: _187  and  _188
REMARK   62  A    between atoms: _187  and  _190
REMARK   63  A    between atoms: _190  and  _191
REMARK   64  A    between atoms: _194  and  _196
REMARK   65  A    between atoms: _196  and  _197
REMARK   66  A    between atoms: _196  and  _199
REMARK   67  A    between atoms: _199  and  _200
REMARK   68  A    between atoms: _201  and  ZN_412
REMARK   69  A    between atoms: _205  and  _207
REMARK   70  A    between atoms: _207  and  _208
REMARK   71  A    between atoms: _207  and  _210
REMARK   72  A    between atoms: _210  and  _211
REMARK   73  A    between atoms: _214  and  _216
REMARK   74  A    between atoms: _216  and  _217
REMARK   75  A    between atoms: _216  and  _219
REMARK   76  A    between atoms: _222  and  _224
REMARK   77  A    between atoms: _224  and  _225
REMARK   78  A    between atoms: _224  and  _227
REMARK   79  A    between atoms: _227  and  _228
REMARK   80  A    between atoms: _233  and  _235
REMARK   81  A    between atoms: _235  and  _236
REMARK   82  A    between atoms: _235  and  _238
REMARK   83  A    between atoms: _238  and  _239
REMARK   84  A    between atoms: _245  and  _247
REMARK   85  A    between atoms: _247  and  _248
REMARK   86  A    between atoms: _247  and  _250
REMARK   87  A    between atoms: _253  and  _255
REMARK   88  A    between atoms: _255  and  _256
REMARK   89  A    between atoms: _255  and  _258
REMARK   90  A    between atoms: _258  and  _259
REMARK   91  A    between atoms: _262  and  _264
REMARK   92  A    between atoms: _264  and  _265
REMARK   93  A    between atoms: _268  and  _270
REMARK   94  A    between atoms: _270  and  _271
REMARK   95  A    between atoms: _270  and  _273
REMARK   96  A    between atoms: _276  and  _278
REMARK   97  A    between atoms: _278  and  _279
REMARK   98  A    between atoms: _278  and  _281
REMARK   99  A    between atoms: _281  and  _282
REMARK  100  A    between atoms: _285  and  _287
REMARK  101  A    between atoms: _287  and  _288
REMARK  102  A    between atoms: _290  and  _292
REMARK  103  A    between atoms: _292  and  _293
REMARK  104  A    between atoms: _292  and  _295
REMARK  105  A    between atoms: _295  and  _296
REMARK  106  A    between atoms: _298  and  _300
REMARK  107  A    between atoms: _300  and  _301
REMARK  108  A    between atoms: _300  and  _303
REMARK  109  A    between atoms: _303  and  _304
REMARK  110  A    between atoms: _310  and  _312
REMARK  111  A    between atoms: _312  and  _313
REMARK  112  A    between atoms: _312  and  _315
REMARK  113  A    between atoms: _315  and  _316
REMARK  114  A    between atoms: _319  and  _321
REMARK  115  A    between atoms: _321  and  _322
REMARK  116  A    between atoms: _321  and  _324
REMARK  117  A    between atoms: _324  and  _325
REMARK  118  A    between atoms: _329  and  _330
REMARK  119  A    between atoms: _336  and  _337
REMARK  120  A    between atoms: _342  and  _344
REMARK  121  A    between atoms: _344  and  _345
REMARK  122  A    between atoms: _344  and  _347
REMARK  123  A    between atoms: _347  and  _348
REMARK  124  A    between atoms: _351  and  _353
REMARK  125  A    between atoms: _353  and  _354
REMARK  126  A    between atoms: _353  and  _356
REMARK  127  A    between atoms: _356  and  _357
REMARK  128  A    between atoms: _360  and  _362
REMARK  129  A    between atoms: _362  and  _363
REMARK  130  A    between atoms: _362  and  _365
REMARK  131  A    between atoms: _368  and  _370
REMARK  132  A    between atoms: _370  and  _371
REMARK  133  A    between atoms: _370  and  _373
REMARK  134  A    between atoms: _373  and  _374
REMARK  135  A    between atoms: _384  and  _386
REMARK  136  A    between atoms: _386  and  _387
REMARK  137  A    between atoms: _386  and  _389
REMARK  138  A    between atoms: _389  and  _390
REMARK  139  A    between atoms: _395  and  _397
REMARK  140  A    between atoms: _397  and  _398
REMARK  141  A    between atoms: _397  and  _400
REMARK  142  A    between atoms: _400  and  _401
REMARK  143  A    between atoms: _401  and  _402
REMARK  144  A    between atoms: _402  and  _403
REMARK                            x       y       z     vdW  Elec       q    Type
REMARK                         _______ _______ _______ _____ _____    ______ ____
ROOT
ATOM      1  CG  TYR A   1       2.130  -7.001  12.074  0.00  0.00    -0.020 A 
ATOM      2  CD2 TYR A   1       1.789  -6.961  13.409  0.00  0.00    -0.001 A 
ATOM      3  CE2 TYR A   1       0.956  -5.976  13.867  0.00  0.00    +0.036 A 
ATOM      4  CZ  TYR A   1       0.480  -5.044  12.966  0.00  0.00    +0.134 A 
ATOM      5  CE1 TYR A   1       0.817  -5.066  11.630  0.00  0.00    +0.036 A 
ATOM      6  CD1 TYR A   1       1.654  -6.059  11.183  0.00  0.00    -0.001 A 
ENDROOT
BRANCH   4   7
ATOM      7  OH  TYR A   1      -0.385  -4.086  13.412  0.00  0.00    -0.506 OA
ATOM      8  HH  TYR A   1      -0.528  -4.199  14.385  0.00  0.00    +0.292 HD
ENDBRANCH   4   7
BRANCH   1   9
ATOM      9  CB  TYR A   1       3.029  -8.114  11.585  0.00  0.00    +0.051 C 
BRANCH   9  10
ATOM     10  CA  TYR A   1       4.498  -7.766  11.785  0.00  0.00    +0.137 C 
BRANCH  10  11
ATOM     11  N   TYR A   1       4.833  -6.664  10.907  0.00  0.00    -0.239 NA
ATOM     12  H   TYR A   1       4.809  -6.786   9.874  0.00  0.00    +0.142 HD
ENDBRANCH  10  11
BRANCH  10  13
ATOM     13  C   TYR A   1       5.378  -8.971  11.557  0.00  0.00    +0.224 C 
ATOM     14  O   TYR A   1       5.154 -10.026  12.141  0.00  0.00    -0.287 OA
ENDBRANCH  10  13
ENDBRANCH   9  10
ENDBRANCH   1   9
TORSDOF 5
REMARK  Name = ../refined-set-2016/1ydb/1ydb_pocket.pdb
REMARK  144 active torsions:
REMARK  status: ('A' for Active; 'I' for Inactive)
REMARK    1  A    between atoms: _1  and  _5
REMARK    2  A    between atoms: _5  and  _6
REMARK    3  A    between atoms: _5  and  _8
REMARK    4  A    between atoms: _8  and  _9
REMARK    5  A    between atoms: _19  and  _21
REMARK    6  A    between atoms: _21  and  _22
REMARK    7  A    between atoms: _21  and  _24
REMARK    8  A    between atoms: _24  and  _25
REMARK    9  A    between atoms: _30  and  _31
REMARK   10  A    between atoms: _33  and  _35
REMARK   11  A    between atoms: _35  and  _36
REMARK   12  A    between atoms: _35  and  _38
REMARK   13  A    between atoms: _38  and  _39
REMARK   14  A    between atoms: _42  and  _43
REMARK   15  A    between atoms: _48  and  _50
REMARK   16  A    between atoms: _50  and  _51
REMARK   17  A    between atoms: _50  and  _53
REMARK   18  A    between atoms: _53  and  _54
REMARK   19  A    between atoms: _59  and  _61
REMARK   20  A    between atoms: _61  and  _62
REMARK   21  A    between atoms: _61  and  _64
REMARK   22  A    between atoms: _64  and  _65
REMARK   23  A    between atoms: _70  and  _72
REMARK   24  A    between atoms: _72  and  _73
REMARK   25  A    between atoms: _76  and  _78
REMARK   26  A    between atoms: _78  and  _79
REMARK   27  A    between atoms: _78  and  _81
REMARK   28  A    between atoms: _81  and  _82
REMARK   29  A    between atoms: _87  and  _89
REMARK   30  A    between atoms: _89  and  _90
REMARK   31  A    between atoms: _89  and  _92
REMARK   32  A    between atoms: _92  and  _93
REMARK   33  A    between atoms: _96  and  _98
REMARK   34  A    between atoms: _98  and  _99
REMARK   35  A    between atoms: _98  and  _101
REMARK   36  A    between atoms: _101  and  _102
REMARK   37  A    between atoms: _102  and  _103
REMARK   38  A    between atoms: _108  and  _110
REMARK   39  A    between atoms: _110  and  _111
REMARK   40  A    between atoms: _110  and  _113
REMARK   41  A    between atoms: _113  and  _114
REMARK   42  A    between atoms: _120  and  _122
REMARK   43  A    between atoms: _133  and  _136
REMARK   44  A    between atoms: _136  and  _137
REMARK   45  A    between atoms: _145  and  _146
REMARK   46  A    between atoms: _154  and  _156
REMARK   47  A    between atoms: _156  and  _157
REMARK   48  A    between atoms: _156  and  _159
REMARK   49  A    between atoms: _159  and  _160
REMARK   50  A    between atoms: _160  and  _161
REMARK   51  A    between atoms: _164  and  _166
REMARK   52  A    between atoms: _166  and  _167
REMARK   53  A    between atoms: _166  and  _169
REMARK   54  A    between atoms: _169  and  _170
REMARK   55  A    between atoms: _175  and  _177
REMARK   56  A    between atoms: _177  and  _178
REMARK   57  A    between atoms: _177  and  _180
REMARK   58  A    between atoms: _180  and  _181
REMARK   59  A    between atoms: _181  and  _182
REMARK   60  A    between atoms: _185  and  _187
REMARK   61  A    between atoms: _187  and  _188
REMARK   62  A    between atoms: _187  and  _190
REMARK   63  A    between atoms: _190  and  _191
REMARK   64  A    between atoms: _194  and  _196
REMARK   65  A    between atoms: _196  and  _197
REMARK   66  A    between atoms: _196  and  _199
REMARK   67  A    between atoms: _199  and  _200
REMARK   68  A    between atoms: _201  and  ZN_412
REMARK   69  A    between atoms: _205  and  _207
REMARK   70  A    between atoms: _207  and  _208
REMARK   71  A    between atoms: _207  and  _210
REMARK   72  A    between atoms: _210  and  _211
REMARK   73  A    between atoms: _214  and  _216
REMARK   74  A    between atoms: _216  and  _217
REMARK   75  A    between atoms: _216  and  _219
REMARK   76  A    between atoms: _222  and  _224
REMARK   77  A    between atoms: _224  and  _225
REMARK   78  A    between atoms: _224  and  _227
REMARK   79  A    between atoms: _227  and  _228
REMARK   80  A    between atoms: _233  and  _235
REMARK   81  A    between atoms: _235  and  _236
REMARK   82  A    between atoms: _235  and  _238
REMARK   83  A    between atoms: _238  and  _239
REMARK   84  A    between atoms: _245  and  _247
REMARK   85  A    between atoms: _247  and  _248
REMARK   86  A    between atoms: _247  and  _250
REMARK   87  A    between atoms: _253  and  _255
REMARK   88  A    between atoms: _255  and  _256
REMARK   89  A    between atoms: _255  and  _258
REMARK   90  A    between atoms: _258  and  _259
REMARK   91  A    between atoms: _262  and  _264
REMARK   92  A    between atoms: _264  and  _265
REMARK   93  A    between atoms: _268  and  _270
REMARK   94  A    between atoms: _270  and  _271
REMARK   95  A    between atoms: _270  and  _273
REMARK   96  A    between atoms: _276  and  _278
REMARK   97  A    between atoms: _278  and  _279
REMARK   98  A    between atoms: _278  and  _281
REMARK   99  A    between atoms: _281  and  _282
REMARK  100  A    between atoms: _285  and  _287
REMARK  101  A    between atoms: _287  and  _288
REMARK  102  A    between atoms: _290  and  _292
REMARK  103  A    between atoms: _292  and  _293
REMARK  104  A    between atoms: _292  and  _295
REMARK  105  A    between atoms: _295  and  _296
REMARK  106  A    between atoms: _298  and  _300
REMARK  107  A    between atoms: _300  and  _301
REMARK  108  A    between atoms: _300  and  _303
REMARK  109  A    between atoms: _303  and  _304
REMARK  110  A    between atoms: _310  and  _312
REMARK  111  A    between atoms: _312  and  _313
REMARK  112  A    between atoms: _312  and  _315
REMARK  113  A    between atoms: _315  and  _316
REMARK  114  A    between atoms: _319  and  _321
REMARK  115  A    between atoms: _321  and  _322
REMARK  116  A    between atoms: _321  and  _324
REMARK  117  A    between atoms: _324  and  _325
REMARK  118  A    between atoms: _329  and  _330
REMARK  119  A    between atoms: _336  and  _337
REMARK  120  A    between atoms: _342  and  _344
REMARK  121  A    between atoms: _344  and  _345
REMARK  122  A    between atoms: _344  and  _347
REMARK  123  A    between atoms: _347  and  _348
REMARK  124  A    between atoms: _351  and  _353
REMARK  125  A    between atoms: _353  and  _354
REMARK  126  A    between atoms: _353  and  _356
REMARK  127  A    between atoms: _356  and  _357
REMARK  128  A    between atoms: _360  and  _362
REMARK  129  A    between atoms: _362  and  _363
REMARK  130  A    between atoms: _362  and  _365
REMARK  131  A    between atoms: _368  and  _370
REMARK  132  A    between atoms: _370  and  _371
REMARK  133  A    between atoms: _370  and  _373
REMARK  134  A    between atoms: _373  and  _374
REMARK  135  A    between atoms: _384  and  _386
REMARK  136  A    between atoms: _386  and  _387
REMARK  137  A    between atoms: _386  and  _389
REMARK  138  A    between atoms: _389  and  _390
REMARK  139  A    between atoms: _395  and  _397
REMARK  140  A    between atoms: _397  and  _398
REMARK  141  A    between atoms: _397  and  _400
REMARK  142  A    between atoms: _400  and  _401
REMARK  143  A    between atoms: _401  and  _402
REMARK  144  A    between atoms: _402  and  _403
REMARK                            x       y       z     vdW  Elec       q    Type
REMARK                         _______ _______ _______ _____ _____    ______ ____
ROOT
ATOM      1  C   SER A   1      -2.326  -3.053  23.518  0.00  0.00    +0.244 C 
ATOM      2  N   PRO A   2      -2.943  -4.205  23.217  0.00  0.00    -0.273 N 
ATOM      3  CA  PRO A   2      -4.133  -4.752  23.873  0.00  0.00    +0.140 C 
ATOM      4  CB  PRO A   2      -4.664  -5.682  22.836  0.00  0.00    +0.030 C 
ATOM      5  CG  PRO A   2      -3.382  -6.316  22.346  0.00  0.00    +0.024 C 
ATOM      6  CD  PRO A   2      -2.504  -5.090  22.132  0.00  0.00    +0.094 C 
ATOM      7  O   SER A   1      -1.322  -2.731  22.874  0.00  0.00    -0.273 OA
ENDROOT
BRANCH   3   8
ATOM      8  C   PRO A   2      -3.767  -5.433  25.185  0.00  0.00    +0.227 C 
ATOM      9  O   PRO A   2      -2.576  -5.529  25.517  0.00  0.00    -0.286 OA
ENDBRANCH   3   8
BRANCH   1  10
ATOM     10  CA  SER A   1      -2.866  -2.119  24.611  0.00  0.00    +0.175 C 
BRANCH  10  11
ATOM     11  N   SER A   1      -1.800  -1.228  25.020  0.00  0.00    -0.236 NA
ATOM     12  H   SER A   1      -1.330  -0.648  24.296  0.00  0.00    +0.142 HD
ENDBRANCH  10  11
BRANCH  10  13
ATOM     13  CB  SER A   1      -4.059  -1.320  24.063  0.00  0.00    +0.163 C 
BRANCH  13  14
ATOM     14  OG  SER A   1      -4.721  -0.580  25.060  0.00  0.00    -0.380 OA
ATOM     15  H   SER A   1      -5.062  -1.197  25.755  0.00  0.00    +0.211 HD
ENDBRANCH  13  14
ENDBRANCH  10  13
ENDBRANCH   1  10
TORSDOF 5
REMARK  Name = ../refined-set-2016/1ydb/1ydb_pocket.pdb
REMARK  144 active torsions:
REMARK  status: ('A' for Active; 'I' for Inactive)
REMARK    1  A    between atoms: _1  and  _5
REMARK    2  A    between atoms: _5  and  _6
REMARK    3  A    between atoms: _5  and  _8
REMARK    4  A    between atoms: _8  and  _9
REMARK    5  A    between atoms: _19  and  _21
REMARK    6  A    between atoms: _21  and  _22
REMARK    7  A    between atoms: _21  and  _24
REMARK    8  A    between atoms: _24  and  _25
REMARK    9  A    between atoms: _30  and  _31
REMARK   10  A    between atoms: _33  and  _35
REMARK   11  A    between atoms: _35  and  _36
REMARK   12  A    between atoms: _35  and  _38
REMARK   13  A    between atoms: _38  and  _39
REMARK   14  A    between atoms: _42  and  _43
REMARK   15  A    between atoms: _48  and  _50
REMARK   16  A    between atoms: _50  and  _51
REMARK   17  A    between atoms: _50  and  _53
REMARK   18  A    between atoms: _53  and  _54
REMARK   19  A    between atoms: _59  and  _61
REMARK   20  A    between atoms: _61  and  _62
REMARK   21  A    between atoms: _61  and  _64
REMARK   22  A    between atoms: _64  and  _65
REMARK   23  A    between atoms: _70  and  _72
REMARK   24  A    between atoms: _72  and  _73
REMARK   25  A    between atoms: _76  and  _78
REMARK   26  A    between atoms: _78  and  _79
REMARK   27  A    between atoms: _78  and  _81
REMARK   28  A    between atoms: _81  and  _82
REMARK   29  A    between atoms: _87  and  _89
REMARK   30  A    between atoms: _89  and  _90
REMARK   31  A    between atoms: _89  and  _92
REMARK   32  A    between atoms: _92  and  _93
REMARK   33  A    between atoms: _96  and  _98
REMARK   34  A    between atoms: _98  and  _99
REMARK   35  A    between atoms: _98  and  _101
REMARK   36  A    between atoms: _101  and  _102
REMARK   37  A    between atoms: _102  and  _103
REMARK   38  A    between atoms: _108  and  _110
REMARK   39  A    between atoms: _110  and  _111
REMARK   40  A    between atoms: _110  and  _113
REMARK   41  A    between atoms: _113  and  _114
REMARK   42  A    between atoms: _120  and  _122
REMARK   43  A    between atoms: _133  and  _136
REMARK   44  A    between atoms: _136  and  _137
REMARK   45  A    between atoms: _145  and  _146
REMARK   46  A    between atoms: _154  and  _156
REMARK   47  A    between atoms: _156  and  _157
REMARK   48  A    between atoms: _156  and  _159
REMARK   49  A    between atoms: _159  and  _160
REMARK   50  A    between atoms: _160  and  _161
REMARK   51  A    between atoms: _164  and  _166
REMARK   52  A    between atoms: _166  and  _167
REMARK   53  A    between atoms: _166  and  _169
REMARK   54  A    between atoms: _169  and  _170
REMARK   55  A    between atoms: _175  and  _177
REMARK   56  A    between atoms: _177  and  _178
REMARK   57  A    between atoms: _177  and  _180
REMARK   58  A    between atoms: _180  and  _181
REMARK   59  A    between atoms: _181  and  _182
REMARK   60  A    between atoms: _185  and  _187
REMARK   61  A    between atoms: _187  and  _188
REMARK   62  A    between atoms: _187  and  _190
REMARK   63  A    between atoms: _190  and  _191
REMARK   64  A    between atoms: _194  and  _196
REMARK   65  A    between atoms: _196  and  _197
REMARK   66  A    between atoms: _196  and  _199
REMARK   67  A    between atoms: _199  and  _200
REMARK   68  A    between atoms: _201  and  ZN_412
REMARK   69  A    between atoms: _205  and  _207
REMARK   70  A    between atoms: _207  and  _208
REMARK   71  A    between atoms: _207  and  _210
REMARK   72  A    between atoms: _210  and  _211
REMARK   73  A    between atoms: _214  and  _216
REMARK   74  A    between atoms: _216  and  _217
REMARK   75  A    between atoms: _216  and  _219
REMARK   76  A    between atoms: _222  and  _224
REMARK   77  A    between atoms: _224  and  _225
REMARK   78  A    between atoms: _224  and  _227
REMARK   79  A    between atoms: _227  and  _228
REMARK   80  A    between atoms: _233  and  _235
REMARK   81  A    between atoms: _235  and  _236
REMARK   82  A    between atoms: _235  and  _238
REMARK   83  A    between atoms: _238  and  _239
REMARK   84  A    between atoms: _245  and  _247
REMARK   85  A    between atoms: _247  and  _248
REMARK   86  A    between atoms: _247  and  _250
REMARK   87  A    between atoms: _253  and  _255
REMARK   88  A    between atoms: _255  and  _256
REMARK   89  A    between atoms: _255  and  _258
REMARK   90  A    between atoms: _258  and  _259
REMARK   91  A    between atoms: _262  and  _264
REMARK   92  A    between atoms: _264  and  _265
REMARK   93  A    between atoms: _268  and  _270
REMARK   94  A    between atoms: _270  and  _271
REMARK   95  A    between atoms: _270  and  _273
REMARK   96  A    between atoms: _276  and  _278
REMARK   97  A    between atoms: _278  and  _279
REMARK   98  A    between atoms: _278  and  _281
REMARK   99  A    between atoms: _281  and  _282
REMARK  100  A    between atoms: _285  and  _287
REMARK  101  A    between atoms: _287  and  _288
REMARK  102  A    between atoms: _290  and  _292
REMARK  103  A    between atoms: _292  and  _293
REMARK  104  A    between atoms: _292  and  _295
REMARK  105  A    between atoms: _295  and  _296
REMARK  106  A    between atoms: _298  and  _300
REMARK  107  A    between atoms: _300  and  _301
REMARK  108  A    between atoms: _300  and  _303
REMARK  109  A    between atoms: _303  and  _304
REMARK  110  A    between atoms: _310  and  _312
REMARK  111  A    between atoms: _312  and  _313
REMARK  112  A    between atoms: _312  and  _315
REMARK  113  A    between atoms: _315  and  _316
REMARK  114  A    between atoms: _319  and  _321
REMARK  115  A    between atoms: _321  and  _322
REMARK  116  A    between atoms: _321  and  _324
REMARK  117  A    between atoms: _324  and  _325
REMARK  118  A    between atoms: _329  and  _330
REMARK  119  A    between atoms: _336  and  _337
REMARK  120  A    between atoms: _342  and  _344
REMARK  121  A    between atoms: _344  and  _345
REMARK  122  A    between atoms: _344  and  _347
REMARK  123  A    between atoms: _347  and  _348
REMARK  124  A    between atoms: _351  and  _353
REMARK  125  A    between atoms: _353  and  _354
REMARK  126  A    between atoms: _353  and  _356
REMARK  127  A    between atoms: _356  and  _357
REMARK  128  A    between atoms: _360  and  _362
REMARK  129  A    between atoms: _362  and  _363
REMARK  130  A    between atoms: _362  and  _365
REMARK  131  A    between atoms: _368  and  _370
REMARK  132  A    between atoms: _370  and  _371
REMARK  133  A    between atoms: _370  and  _373
REMARK  134  A    between atoms: _373  and  _374
REMARK  135  A    between atoms: _384  and  _386
REMARK  136  A    between atoms: _386  and  _387
REMARK  137  A    between atoms: _386  and  _389
REMARK  138  A    between atoms: _389  and  _390
REMARK  139  A    between atoms: _395  and  _397
REMARK  140  A    between atoms: _397  and  _398
REMARK  141  A    between atoms: _397  and  _400
REMARK  142  A    between atoms: _400  and  _401
REMARK  143  A    between atoms: _401  and  _402
REMARK  144  A    between atoms: _402  and  _403
REMARK                            x       y       z     vdW  Elec       q    Type
REMARK                         _______ _______ _______ _____ _____    ______ ____
ROOT
ATOM      1  CB  ASN A   1      -2.662   1.959   5.276  0.00  0.00    +0.110 C 
ENDROOT
BRANCH   1   2
ATOM      2  CG  ASN A   1      -3.013   1.106   6.490  0.00  0.00    +0.221 C 
ATOM      3  ND2 ASN A   1      -3.888   1.595   7.342  0.00  0.00    -0.329 N 
ATOM      4 HD21 ASN A   1      -4.137   1.058   8.197  0.00  0.00    +0.145 HD
ATOM      5 HD22 ASN A   1      -4.331   2.518   7.160  0.00  0.00    +0.145 HD
ATOM      6  OD1 ASN A   1      -2.501   0.007   6.728  0.00  0.00    -0.275 OA
ENDBRANCH   1   2
BRANCH   1   7
ATOM      7  CA  ASN A   1      -2.255   1.153   4.050  0.00  0.00    +0.142 C 
BRANCH   7   8
ATOM      8  N   ASN A   1      -3.372   0.314   3.616  0.00  0.00    -0.239 NA
ATOM      9  H   ASN A   1      -3.880  -0.260   4.319  0.00  0.00    +0.142 HD
ENDBRANCH   7   8
BRANCH   7  10
ATOM     10  C   ASN A   1      -0.993   0.363   4.357  0.00  0.00    +0.225 C 
ATOM     11  O   ASN A   1      -0.098   0.858   5.049  0.00  0.00    -0.287 OA
ENDBRANCH   7  10
ENDBRANCH   1   7
TORSDOF 4
REMARK  Name = ../refined-set-2016/1ydb/1ydb_pocket.pdb
REMARK  144 active torsions:
REMARK  status: ('A' for Active; 'I' for Inactive)
REMARK    1  A    between atoms: _1  and  _5
REMARK    2  A    between atoms: _5  and  _6
REMARK    3  A    between atoms: _5  and  _8
REMARK    4  A    between atoms: _8  and  _9
REMARK    5  A    between atoms: _19  and  _21
REMARK    6  A    between atoms: _21  and  _22
REMARK    7  A    between atoms: _21  and  _24
REMARK    8  A    between atoms: _24  and  _25
REMARK    9  A    between atoms: _30  and  _31
REMARK   10  A    between atoms: _33  and  _35
REMARK   11  A    between atoms: _35  and  _36
REMARK   12  A    between atoms: _35  and  _38
REMARK   13  A    between atoms: _38  and  _39
REMARK   14  A    between atoms: _42  and  _43
REMARK   15  A    between atoms: _48  and  _50
REMARK   16  A    between atoms: _50  and  _51
REMARK   17  A    between atoms: _50  and  _53
REMARK   18  A    between atoms: _53  and  _54
REMARK   19  A    between atoms: _59  and  _61
REMARK   20  A    between atoms: _61  and  _62
REMARK   21  A    between atoms: _61  and  _64
REMARK   22  A    between atoms: _64  and  _65
REMARK   23  A    between atoms: _70  and  _72
REMARK   24  A    between atoms: _72  and  _73
REMARK   25  A    between atoms: _76  and  _78
REMARK   26  A    between atoms: _78  and  _79
REMARK   27  A    between atoms: _78  and  _81
REMARK   28  A    between atoms: _81  and  _82
REMARK   29  A    between atoms: _87  and  _89
REMARK   30  A    between atoms: _89  and  _90
REMARK   31  A    between atoms: _89  and  _92
REMARK   32  A    between atoms: _92  and  _93
REMARK   33  A    between atoms: _96  and  _98
REMARK   34  A    between atoms: _98  and  _99
REMARK   35  A    between atoms: _98  and  _101
REMARK   36  A    between atoms: _101  and  _102
REMARK   37  A    between atoms: _102  and  _103
REMARK   38  A    between atoms: _108  and  _110
REMARK   39  A    between atoms: _110  and  _111
REMARK   40  A    between atoms: _110  and  _113
REMARK   41  A    between atoms: _113  and  _114
REMARK   42  A    between atoms: _120  and  _122
REMARK   43  A    between atoms: _133  and  _136
REMARK   44  A    between atoms: _136  and  _137
REMARK   45  A    between atoms: _145  and  _146
REMARK   46  A    between atoms: _154  and  _156
REMARK   47  A    between atoms: _156  and  _157
REMARK   48  A    between atoms: _156  and  _159
REMARK   49  A    between atoms: _159  and  _160
REMARK   50  A    between atoms: _160  and  _161
REMARK   51  A    between atoms: _164  and  _166
REMARK   52  A    between atoms: _166  and  _167
REMARK   53  A    between atoms: _166  and  _169
REMARK   54  A    between atoms: _169  and  _170
REMARK   55  A    between atoms: _175  and  _177
REMARK   56  A    between atoms: _177  and  _178
REMARK   57  A    between atoms: _177  and  _180
REMARK   58  A    between atoms: _180  and  _181
REMARK   59  A    between atoms: _181  and  _182
REMARK   60  A    between atoms: _185  and  _187
REMARK   61  A    between atoms: _187  and  _188
REMARK   62  A    between atoms: _187  and  _190
REMARK   63  A    between atoms: _190  and  _191
REMARK   64  A    between atoms: _194  and  _196
REMARK   65  A    between atoms: _196  and  _197
REMARK   66  A    between atoms: _196  and  _199
REMARK   67  A    between atoms: _199  and  _200
REMARK   68  A    between atoms: _201  and  ZN_412
REMARK   69  A    between atoms: _205  and  _207
REMARK   70  A    between atoms: _207  and  _208
REMARK   71  A    between atoms: _207  and  _210
REMARK   72  A    between atoms: _210  and  _211
REMARK   73  A    between atoms: _214  and  _216
REMARK   74  A    between atoms: _216  and  _217
REMARK   75  A    between atoms: _216  and  _219
REMARK   76  A    between atoms: _222  and  _224
REMARK   77  A    between atoms: _224  and  _225
REMARK   78  A    between atoms: _224  and  _227
REMARK   79  A    between atoms: _227  and  _228
REMARK   80  A    between atoms: _233  and  _235
REMARK   81  A    between atoms: _235  and  _236
REMARK   82  A    between atoms: _235  and  _238
REMARK   83  A    between atoms: _238  and  _239
REMARK   84  A    between atoms: _245  and  _247
REMARK   85  A    between atoms: _247  and  _248
REMARK   86  A    between atoms: _247  and  _250
REMARK   87  A    between atoms: _253  and  _255
REMARK   88  A    between atoms: _255  and  _256
REMARK   89  A    between atoms: _255  and  _258
REMARK   90  A    between atoms: _258  and  _259
REMARK   91  A    between atoms: _262  and  _264
REMARK   92  A    between atoms: _264  and  _265
REMARK   93  A    between atoms: _268  and  _270
REMARK   94  A    between atoms: _270  and  _271
REMARK   95  A    between atoms: _270  and  _273
REMARK   96  A    between atoms: _276  and  _278
REMARK   97  A    between atoms: _278  and  _279
REMARK   98  A    between atoms: _278  and  _281
REMARK   99  A    between atoms: _281  and  _282
REMARK  100  A    between atoms: _285  and  _287
REMARK  101  A    between atoms: _287  and  _288
REMARK  102  A    between atoms: _290  and  _292
REMARK  103  A    between atoms: _292  and  _293
REMARK  104  A    between atoms: _292  and  _295
REMARK  105  A    between atoms: _295  and  _296
REMARK  106  A    between atoms: _298  and  _300
REMARK  107  A    between atoms: _300  and  _301
REMARK  108  A    between atoms: _300  and  _303
REMARK  109  A    between atoms: _303  and  _304
REMARK  110  A    between atoms: _310  and  _312
REMARK  111  A    between atoms: _312  and  _313
REMARK  112  A    between atoms: _312  and  _315
REMARK  113  A    between atoms: _315  and  _316
REMARK  114  A    between atoms: _319  and  _321
REMARK  115  A    between atoms: _321  and  _322
REMARK  116  A    between atoms: _321  and  _324
REMARK  117  A    between atoms: _324  and  _325
REMARK  118  A    between atoms: _329  and  _330
REMARK  119  A    between atoms: _336  and  _337
REMARK  120  A    between atoms: _342  and  _344
REMARK  121  A    between atoms: _344  and  _345
REMARK  122  A    between atoms: _344  and  _347
REMARK  123  A    between atoms: _347  and  _348
REMARK  124  A    between atoms: _351  and  _353
REMARK  125  A    between atoms: _353  and  _354
REMARK  126  A    between atoms: _353  and  _356
REMARK  127  A    between atoms: _356  and  _357
REMARK  128  A    between atoms: _360  and  _362
REMARK  129  A    between atoms: _362  and  _363
REMARK  130  A    between atoms: _362  and  _365
REMARK  131  A    between atoms: _368  and  _370
REMARK  132  A    between atoms: _370  and  _371
REMARK  133  A    between atoms: _370  and  _373
REMARK  134  A    between atoms: _373  and  _374
REMARK  135  A    between atoms: _384  and  _386
REMARK  136  A    between atoms: _386  and  _387
REMARK  137  A    between atoms: _386  and  _389
REMARK  138  A    between atoms: _389  and  _390
REMARK  139  A    between atoms: _395  and  _397
REMARK  140  A    between atoms: _397  and  _398
REMARK  141  A    between atoms: _397  and  _400
REMARK  142  A    between atoms: _400  and  _401
REMARK  143  A    between atoms: _401  and  _402
REMARK  144  A    between atoms: _402  and  _403
REMARK                            x       y       z     vdW  Elec       q    Type
REMARK                         _______ _______ _______ _____ _____    ______ ____
ROOT
ATOM      1  CA  HIS A   1      -0.774  -3.159   7.418  0.00  0.00    +0.151 C 
ENDROOT
BRANCH   1   2
ATOM      2  C   HIS A   1      -2.202  -3.498   7.774  0.00  0.00    +0.239 C 
ATOM      3  O   HIS A   1      -2.421  -4.366   8.610  0.00  0.00    -0.274 OA
ATOM      4  N   ALA A   2      -3.196  -2.858   7.192  0.00  0.00    -0.298 N 
ATOM      5  H   ALA A   2      -2.956  -2.082   6.543  0.00  0.00    +0.150 HD
BRANCH   4   6
ATOM      6  CA  ALA A   2      -4.604  -3.158   7.392  0.00  0.00    +0.137 C 
ATOM      7  CB  ALA A   2      -5.148  -2.645   8.736  0.00  0.00    +0.030 C 
BRANCH   6   8
ATOM      8  C   ALA A   2      -5.337  -2.395   6.301  0.00  0.00    +0.227 C 
ATOM      9  O   ALA A   2      -4.677  -1.711   5.512  0.00  0.00    -0.286 OA
ENDBRANCH   6   8
ENDBRANCH   4   6
ENDBRANCH   1   2
BRANCH   1  10
ATOM     10  N   HIS A   1      -0.659  -2.267   6.273  0.00  0.00    -0.238 NA
ATOM     11  H   HIS A   1      -1.332  -1.484   6.148  0.00  0.00    +0.142 HD
ENDBRANCH   1  10
BRANCH   1  12
ATOM     12  CB  HIS A   1      -0.100  -2.579   8.639  0.00  0.00    +0.074 C 
BRANCH  12  13
ATOM     13  CG  HIS A   1      -0.501  -1.154   8.949  0.00  0.00    +0.082 A 
ATOM     14  CD2 HIS A   1      -1.593  -0.783   9.712  0.00  0.00    +0.115 A 
ATOM     15  NE2 HIS A   1      -1.550   0.528   9.764  0.00  0.00    -0.221 NA
ATOM     16  CE1 HIS A   1      -0.504   0.969   9.074  0.00  0.00    +0.199 A 
ATOM     17  ND1 HIS A   1       0.149  -0.050   8.560  0.00  0.00    -0.227 NA
ENDBRANCH  12  13
ENDBRANCH   1  12
TORSDOF 6
REMARK  Name = ../refined-set-2016/1ydb/1ydb_pocket.pdb
REMARK  144 active torsions:
REMARK  status: ('A' for Active; 'I' for Inactive)
REMARK    1  A    between atoms: _1  and  _5
REMARK    2  A    between atoms: _5  and  _6
REMARK    3  A    between atoms: _5  and  _8
REMARK    4  A    between atoms: _8  and  _9
REMARK    5  A    between atoms: _19  and  _21
REMARK    6  A    between atoms: _21  and  _22
REMARK    7  A    between atoms: _21  and  _24
REMARK    8  A    between atoms: _24  and  _25
REMARK    9  A    between atoms: _30  and  _31
REMARK   10  A    between atoms: _33  and  _35
REMARK   11  A    between atoms: _35  and  _36
REMARK   12  A    between atoms: _35  and  _38
REMARK   13  A    between atoms: _38  and  _39
REMARK   14  A    between atoms: _42  and  _43
REMARK   15  A    between atoms: _48  and  _50
REMARK   16  A    between atoms: _50  and  _51
REMARK   17  A    between atoms: _50  and  _53
REMARK   18  A    between atoms: _53  and  _54
REMARK   19  A    between atoms: _59  and  _61
REMARK   20  A    between atoms: _61  and  _62
REMARK   21  A    between atoms: _61  and  _64
REMARK   22  A    between atoms: _64  and  _65
REMARK   23  A    between atoms: _70  and  _72
REMARK   24  A    between atoms: _72  and  _73
REMARK   25  A    between atoms: _76  and  _78
REMARK   26  A    between atoms: _78  and  _79
REMARK   27  A    between atoms: _78  and  _81
REMARK   28  A    between atoms: _81  and  _82
REMARK   29  A    between atoms: _87  and  _89
REMARK   30  A    between atoms: _89  and  _90
REMARK   31  A    between atoms: _89  and  _92
REMARK   32  A    between atoms: _92  and  _93
REMARK   33  A    between atoms: _96  and  _98
REMARK   34  A    between atoms: _98  and  _99
REMARK   35  A    between atoms: _98  and  _101
REMARK   36  A    between atoms: _101  and  _102
REMARK   37  A    between atoms: _102  and  _103
REMARK   38  A    between atoms: _108  and  _110
REMARK   39  A    between atoms: _110  and  _111
REMARK   40  A    between atoms: _110  and  _113
REMARK   41  A    between atoms: _113  and  _114
REMARK   42  A    between atoms: _120  and  _122
REMARK   43  A    between atoms: _133  and  _136
REMARK   44  A    between atoms: _136  and  _137
REMARK   45  A    between atoms: _145  and  _146
REMARK   46  A    between atoms: _154  and  _156
REMARK   47  A    between atoms: _156  and  _157
REMARK   48  A    between atoms: _156  and  _159
REMARK   49  A    between atoms: _159  and  _160
REMARK   50  A    between atoms: _160  and  _161
REMARK   51  A    between atoms: _164  and  _166
REMARK   52  A    between atoms: _166  and  _167
REMARK   53  A    between atoms: _166  and  _169
REMARK   54  A    between atoms: _169  and  _170
REMARK   55  A    between atoms: _175  and  _177
REMARK   56  A    between atoms: _177  and  _178
REMARK   57  A    between atoms: _177  and  _180
REMARK   58  A    between atoms: _180  and  _181
REMARK   59  A    between atoms: _181  and  _182
REMARK   60  A    between atoms: _185  and  _187
REMARK   61  A    between atoms: _187  and  _188
REMARK   62  A    between atoms: _187  and  _190
REMARK   63  A    between atoms: _190  and  _191
REMARK   64  A    between atoms: _194  and  _196
REMARK   65  A    between atoms: _196  and  _197
REMARK   66  A    between atoms: _196  and  _199
REMARK   67  A    between atoms: _199  and  _200
REMARK   68  A    between atoms: _201  and  ZN_412
REMARK   69  A    between atoms: _205  and  _207
REMARK   70  A    between atoms: _207  and  _208
REMARK   71  A    between atoms: _207  and  _210
REMARK   72  A    between atoms: _210  and  _211
REMARK   73  A    between atoms: _214  and  _216
REMARK   74  A    between atoms: _216  and  _217
REMARK   75  A    between atoms: _216  and  _219
REMARK   76  A    between atoms: _222  and  _224
REMARK   77  A    between atoms: _224  and  _225
REMARK   78  A    between atoms: _224  and  _227
REMARK   79  A    between atoms: _227  and  _228
REMARK   80  A    between atoms: _233  and  _235
REMARK   81  A    between atoms: _235  and  _236
REMARK   82  A    between atoms: _235  and  _238
REMARK   83  A    between atoms: _238  and  _239
REMARK   84  A    between atoms: _245  and  _247
REMARK   85  A    between atoms: _247  and  _248
REMARK   86  A    between atoms: _247  and  _250
REMARK   87  A    between atoms: _253  and  _255
REMARK   88  A    between atoms: _255  and  _256
REMARK   89  A    between atoms: _255  and  _258
REMARK   90  A    between atoms: _258  and  _259
REMARK   91  A    between atoms: _262  and  _264
REMARK   92  A    between atoms: _264  and  _265
REMARK   93  A    between atoms: _268  and  _270
REMARK   94  A    between atoms: _270  and  _271
REMARK   95  A    between atoms: _270  and  _273
REMARK   96  A    between atoms: _276  and  _278
REMARK   97  A    between atoms: _278  and  _279
REMARK   98  A    between atoms: _278  and  _281
REMARK   99  A    between atoms: _281  and  _282
REMARK  100  A    between atoms: _285  and  _287
REMARK  101  A    between atoms: _287  and  _288
REMARK  102  A    between atoms: _290  and  _292
REMARK  103  A    between atoms: _292  and  _293
REMARK  104  A    between atoms: _292  and  _295
REMARK  105  A    between atoms: _295  and  _296
REMARK  106  A    between atoms: _298  and  _300
REMARK  107  A    between atoms: _300  and  _301
REMARK  108  A    between atoms: _300  and  _303
REMARK  109  A    between atoms: _303  and  _304
REMARK  110  A    between atoms: _310  and  _312
REMARK  111  A    between atoms: _312  and  _313
REMARK  112  A    between atoms: _312  and  _315
REMARK  113  A    between atoms: _315  and  _316
REMARK  114  A    between atoms: _319  and  _321
REMARK  115  A    between atoms: _321  and  _322
REMARK  116  A    between atoms: _321  and  _324
REMARK  117  A    between atoms: _324  and  _325
REMARK  118  A    between atoms: _329  and  _330
REMARK  119  A    between atoms: _336  and  _337
REMARK  120  A    between atoms: _342  and  _344
REMARK  121  A    between atoms: _344  and  _345
REMARK  122  A    between atoms: _344  and  _347
REMARK  123  A    between atoms: _347  and  _348
REMARK  124  A    between atoms: _351  and  _353
REMARK  125  A    between atoms: _353  and  _354
REMARK  126  A    between atoms: _353  and  _356
REMARK  127  A    between atoms: _356  and  _357
REMARK  128  A    between atoms: _360  and  _362
REMARK  129  A    between atoms: _362  and  _363
REMARK  130  A    between atoms: _362  and  _365
REMARK  131  A    between atoms: _368  and  _370
REMARK  132  A    between atoms: _370  and  _371
REMARK  133  A    between atoms: _370  and  _373
REMARK  134  A    between atoms: _373  and  _374
REMARK  135  A    between atoms: _384  and  _386
REMARK  136  A    between atoms: _386  and  _387
REMARK  137  A    between atoms: _386  and  _389
REMARK  138  A    between atoms: _389  and  _390
REMARK  139  A    between atoms: _395  and  _397
REMARK  140  A    between atoms: _397  and  _398
REMARK  141  A    between atoms: _397  and  _400
REMARK  142  A    between atoms: _400  and  _401
REMARK  143  A    between atoms: _401  and  _402
REMARK  144  A    between atoms: _402  and  _403
REMARK                            x       y       z     vdW  Elec       q    Type
REMARK                         _______ _______ _______ _____ _____    ______ ____
ROOT
ATOM      1  CB  ASN A   1      -8.557   2.530   7.101  0.00  0.00    +0.110 C 
ENDROOT
BRANCH   1   2
ATOM      2  CG  ASN A   1      -7.356   2.300   7.977  0.00  0.00    +0.221 C 
ATOM      3  OD1 ASN A   1      -7.030   1.216   8.445  0.00  0.00    -0.275 OA
ATOM      4  ND2 ASN A   1      -6.580   3.345   8.193  0.00  0.00    -0.329 N 
ATOM      5 HD21 ASN A   1      -5.709   3.239   8.752  0.00  0.00    +0.145 HD
ATOM      6 HD22 ASN A   1      -6.839   4.274   7.804  0.00  0.00    +0.145 HD
ENDBRANCH   1   2
BRANCH   1   7
ATOM      7  CA  ASN A   1      -9.279   1.272   6.685  0.00  0.00    +0.142 C 
BRANCH   7   8
ATOM      8  N   ASN A   1      -8.460   0.400   5.853  0.00  0.00    -0.239 NA
ATOM      9  H   ASN A   1      -7.979   0.793   5.019  0.00  0.00    +0.142 HD
ENDBRANCH   7   8
BRANCH   7  10
ATOM     10  C   ASN A   1     -10.469   1.755   5.913  0.00  0.00    +0.225 C 
ATOM     11  O   ASN A   1     -10.276   2.087   4.732  0.00  0.00    -0.287 OA
ENDBRANCH   7  10
ENDBRANCH   1   7
TORSDOF 4
REMARK  Name = ../refined-set-2016/1ydb/1ydb_pocket.pdb
REMARK  144 active torsions:
REMARK  status: ('A' for Active; 'I' for Inactive)
REMARK    1  A    between atoms: _1  and  _5
REMARK    2  A    between atoms: _5  and  _6
REMARK    3  A    between atoms: _5  and  _8
REMARK    4  A    between atoms: _8  and  _9
REMARK    5  A    between atoms: _19  and  _21
REMARK    6  A    between atoms: _21  and  _22
REMARK    7  A    between atoms: _21  and  _24
REMARK    8  A    between atoms: _24  and  _25
REMARK    9  A    between atoms: _30  and  _31
REMARK   10  A    between atoms: _33  and  _35
REMARK   11  A    between atoms: _35  and  _36
REMARK   12  A    between atoms: _35  and  _38
REMARK   13  A    between atoms: _38  and  _39
REMARK   14  A    between atoms: _42  and  _43
REMARK   15  A    between atoms: _48  and  _50
REMARK   16  A    between atoms: _50  and  _51
REMARK   17  A    between atoms: _50  and  _53
REMARK   18  A    between atoms: _53  and  _54
REMARK   19  A    between atoms: _59  and  _61
REMARK   20  A    between atoms: _61  and  _62
REMARK   21  A    between atoms: _61  and  _64
REMARK   22  A    between atoms: _64  and  _65
REMARK   23  A    between atoms: _70  and  _72
REMARK   24  A    between atoms: _72  and  _73
REMARK   25  A    between atoms: _76  and  _78
REMARK   26  A    between atoms: _78  and  _79
REMARK   27  A    between atoms: _78  and  _81
REMARK   28  A    between atoms: _81  and  _82
REMARK   29  A    between atoms: _87  and  _89
REMARK   30  A    between atoms: _89  and  _90
REMARK   31  A    between atoms: _89  and  _92
REMARK   32  A    between atoms: _92  and  _93
REMARK   33  A    between atoms: _96  and  _98
REMARK   34  A    between atoms: _98  and  _99
REMARK   35  A    between atoms: _98  and  _101
REMARK   36  A    between atoms: _101  and  _102
REMARK   37  A    between atoms: _102  and  _103
REMARK   38  A    between atoms: _108  and  _110
REMARK   39  A    between atoms: _110  and  _111
REMARK   40  A    between atoms: _110  and  _113
REMARK   41  A    between atoms: _113  and  _114
REMARK   42  A    between atoms: _120  and  _122
REMARK   43  A    between atoms: _133  and  _136
REMARK   44  A    between atoms: _136  and  _137
REMARK   45  A    between atoms: _145  and  _146
REMARK   46  A    between atoms: _154  and  _156
REMARK   47  A    between atoms: _156  and  _157
REMARK   48  A    between atoms: _156  and  _159
REMARK   49  A    between atoms: _159  and  _160
REMARK   50  A    between atoms: _160  and  _161
REMARK   51  A    between atoms: _164  and  _166
REMARK   52  A    between atoms: _166  and  _167
REMARK   53  A    between atoms: _166  and  _169
REMARK   54  A    between atoms: _169  and  _170
REMARK   55  A    between atoms: _175  and  _177
REMARK   56  A    between atoms: _177  and  _178
REMARK   57  A    between atoms: _177  and  _180
REMARK   58  A    between atoms: _180  and  _181
REMARK   59  A    between atoms: _181  and  _182
REMARK   60  A    between atoms: _185  and  _187
REMARK   61  A    between atoms: _187  and  _188
REMARK   62  A    between atoms: _187  and  _190
REMARK   63  A    between atoms: _190  and  _191
REMARK   64  A    between atoms: _194  and  _196
REMARK   65  A    between atoms: _196  and  _197
REMARK   66  A    between atoms: _196  and  _199
REMARK   67  A    between atoms: _199  and  _200
REMARK   68  A    between atoms: _201  and  ZN_412
REMARK   69  A    between atoms: _205  and  _207
REMARK   70  A    between atoms: _207  and  _208
REMARK   71  A    between atoms: _207  and  _210
REMARK   72  A    between atoms: _210  and  _211
REMARK   73  A    between atoms: _214  and  _216
REMARK   74  A    between atoms: _216  and  _217
REMARK   75  A    between atoms: _216  and  _219
REMARK   76  A    between atoms: _222  and  _224
REMARK   77  A    between atoms: _224  and  _225
REMARK   78  A    between atoms: _224  and  _227
REMARK   79  A    between atoms: _227  and  _228
REMARK   80  A    between atoms: _233  and  _235
REMARK   81  A    between atoms: _235  and  _236
REMARK   82  A    between atoms: _235  and  _238
REMARK   83  A    between atoms: _238  and  _239
REMARK   84  A    between atoms: _245  and  _247
REMARK   85  A    between atoms: _247  and  _248
REMARK   86  A    between atoms: _247  and  _250
REMARK   87  A    between atoms: _253  and  _255
REMARK   88  A    between atoms: _255  and  _256
REMARK   89  A    between atoms: _255  and  _258
REMARK   90  A    between atoms: _258  and  _259
REMARK   91  A    between atoms: _262  and  _264
REMARK   92  A    between atoms: _264  and  _265
REMARK   93  A    between atoms: _268  and  _270
REMARK   94  A    between atoms: _270  and  _271
REMARK   95  A    between atoms: _270  and  _273
REMARK   96  A    between atoms: _276  and  _278
REMARK   97  A    between atoms: _278  and  _279
REMARK   98  A    between atoms: _278  and  _281
REMARK   99  A    between atoms: _281  and  _282
REMARK  100  A    between atoms: _285  and  _287
REMARK  101  A    between atoms: _287  and  _288
REMARK  102  A    between atoms: _290  and  _292
REMARK  103  A    between atoms: _292  and  _293
REMARK  104  A    between atoms: _292  and  _295
REMARK  105  A    between atoms: _295  and  _296
REMARK  106  A    between atoms: _298  and  _300
REMARK  107  A    between atoms: _300  and  _301
REMARK  108  A    between atoms: _300  and  _303
REMARK  109  A    between atoms: _303  and  _304
REMARK  110  A    between atoms: _310  and  _312
REMARK  111  A    between atoms: _312  and  _313
REMARK  112  A    between atoms: _312  and  _315
REMARK  113  A    between atoms: _315  and  _316
REMARK  114  A    between atoms: _319  and  _321
REMARK  115  A    between atoms: _321  and  _322
REMARK  116  A    between atoms: _321  and  _324
REMARK  117  A    between atoms: _324  and  _325
REMARK  118  A    between atoms: _329  and  _330
REMARK  119  A    between atoms: _336  and  _337
REMARK  120  A    between atoms: _342  and  _344
REMARK  121  A    between atoms: _344  and  _345
REMARK  122  A    between atoms: _344  and  _347
REMARK  123  A    between atoms: _347  and  _348
REMARK  124  A    between atoms: _351  and  _353
REMARK  125  A    between atoms: _353  and  _354
REMARK  126  A    between atoms: _353  and  _356
REMARK  127  A    between atoms: _356  and  _357
REMARK  128  A    between atoms: _360  and  _362
REMARK  129  A    between atoms: _362  and  _363
REMARK  130  A    between atoms: _362  and  _365
REMARK  131  A    between atoms: _368  and  _370
REMARK  132  A    between atoms: _370  and  _371
REMARK  133  A    between atoms: _370  and  _373
REMARK  134  A    between atoms: _373  and  _374
REMARK  135  A    between atoms: _384  and  _386
REMARK  136  A    between atoms: _386  and  _387
REMARK  137  A    between atoms: _386  and  _389
REMARK  138  A    between atoms: _389  and  _390
REMARK  139  A    between atoms: _395  and  _397
REMARK  140  A    between atoms: _397  and  _398
REMARK  141  A    between atoms: _397  and  _400
REMARK  142  A    between atoms: _400  and  _401
REMARK  143  A    between atoms: _401  and  _402
REMARK  144  A    between atoms: _402  and  _403
REMARK                            x       y       z     vdW  Elec       q    Type
REMARK                         _______ _______ _______ _____ _____    ______ ____
ROOT
ATOM      1  C   UNK A   4     -10.136  -1.353  10.388  0.00  0.00    +0.000 C 
ATOM      2  C   UNK A   4     -10.283  -2.647  11.190  0.00  0.00    +0.000 C 
ATOM      3  O   UNK A   4     -11.050  -2.761  12.154  0.00  0.00    +0.000 OA
ATOM      4  N   VAL A   5      -9.572  -3.679  10.757  0.00  0.00    +0.000 N 
ATOM      5  CA  VAL A   5      -9.656  -4.990  11.380  0.00  0.00    +0.000 C 
ATOM      6  C   VAL A   5      -8.231  -5.440  11.565  0.00  0.00    +0.000 C 
ATOM      7  N   UNK A   6      -8.092  -6.401  12.473  0.00  0.00    +0.000 N 
ATOM      8  H   UNK A   6      -8.914  -6.636  13.065  0.00  0.00    +0.000 HD
ATOM      9  C   UNK A   6      -6.852  -7.148  12.689  0.00  0.00    +0.000 C 
ATOM     10  C   UNK A   6      -6.292  -6.841  14.088  0.00  0.00    +0.000 C 
ATOM     11  C   UNK A   6      -5.851  -5.375  14.271  0.00  0.00    +0.000 A 
ATOM     12  C   UNK A   6      -6.646  -4.336  14.695  0.00  0.00    +0.000 A 
ATOM     13  N   UNK A   6      -5.866  -3.295  14.753  0.00  0.00    +0.000 N 
ATOM     14 ZN   UNK A   6      -6.788  -1.660  15.405  0.00  0.00    +0.000 Zn
ATOM     15  N   UNK A   4      -7.332  -0.471  13.824  0.00  0.00    +0.000 N 
ATOM     16  C   UNK A   4      -8.035   0.613  13.726  0.00  0.00    +0.000 A 
ATOM     17  N   UNK A   4      -8.592   0.622  12.554  0.00  0.00    +0.000 NA
ATOM     18  C   UNK A   4      -8.242  -0.469  11.907  0.00  0.00    +0.000 A 
ATOM     19  C   UNK A   4      -7.420  -1.175  12.738  0.00  0.00    +0.000 A 
ATOM     20  C   UNK A   6      -4.647  -3.612  14.383  0.00  0.00    +0.000 A 
ATOM     21  N   UNK A   6      -4.628  -4.880  14.080  0.00  0.00    +0.000 NA
ATOM     22  O   VAL A   5      -7.318  -4.924  10.923  0.00  0.00    +0.000 OA
ATOM     23  H   VAL A   5      -8.934  -3.547   9.946  0.00  0.00    +0.000 HD
ATOM     24  C   UNK A   4      -8.688  -0.882  10.498  0.00  0.00    +0.000 C 
ENDROOT
BRANCH  14  25
ATOM     25  N   UNK A   6      -8.230  -2.260  16.502  0.00  0.00    +0.000 N 
ATOM     26  C   UNK A   6      -7.884  -3.123  17.426  0.00  0.00    +0.000 A 
ATOM     27  N   UNK A   6      -8.946  -3.402  18.121  0.00  0.00    +0.000 NA
ATOM     28  C   UNK A   6      -9.972  -2.752  17.684  0.00  0.00    +0.000 A 
ATOM     29  C   UNK A   6      -9.504  -2.012  16.646  0.00  0.00    +0.000 A 
BRANCH  29  30
ATOM     30  C   UNK A   6     -10.316  -1.019  15.838  0.00  0.00    +0.000 C 
BRANCH  30  31
ATOM     31  C   UNK A   6     -11.795  -1.305  15.747  0.00  0.00    +0.000 C 
BRANCH  31  32
ATOM     32  C   UNK A   6     -12.473  -0.141  15.042  0.00  0.00    +0.000 C 
ATOM     33  N   UNK A   4     -13.411   0.516  15.725  0.00  0.00    +0.000 N 
ATOM     34  H   UNK A   4     -13.703   0.137  16.648  0.00  0.00    +0.000 HD
ATOM     35  O   UNK A   6     -12.182   0.103  13.859  0.00  0.00    +0.000 OA
BRANCH  33  36
ATOM     36  C   UNK A   4     -14.050   1.739  15.247  0.00  0.00    +0.000 C 
BRANCH  36  37
ATOM     37  C   UNK A   4     -13.456   2.899  16.066  0.00  0.00    +0.000 C 
ATOM     38  O   UNK A   4     -13.673   3.050  17.289  0.00  0.00    +0.000 OA
ATOM     39  N   VAL A   5     -12.652   3.703  15.384  0.00  0.00    +0.000 N 
ATOM     40  H   VAL A   5     -12.604   3.605  14.350  0.00  0.00    +0.000 HD
BRANCH  39  41
ATOM     41  CA  VAL A   5     -11.835   4.718  16.031  0.00  0.00    +0.000 C 
BRANCH  41  42
ATOM     42  C   VAL A   5     -12.574   6.038  16.047  0.00  0.00    +0.000 C 
ATOM     43  N   UNK A   6     -12.648   6.643  17.236  0.00  0.00    +0.000 N 
ATOM     44  H   UNK A   6     -12.175   6.197  18.048  0.00  0.00    +0.000 HD
ATOM     45  O   VAL A   5     -13.080   6.465  15.002  0.00  0.00    +0.000 OA
BRANCH  43  46
ATOM     46  C   UNK A   6     -13.353   7.887  17.451  0.00  0.00    +0.000 C 
BRANCH  46  47
ATOM     47  C   UNK A   6     -12.444   8.905  18.124  0.00  0.00    +0.000 C 
ATOM     48  O   UNK A   6     -11.607   8.489  18.925  0.00  0.00    +0.000 OA
ENDBRANCH  46  47
BRANCH  46  49
ATOM     49  C   UNK A   6     -14.562   7.684  18.342  0.00  0.00    +0.000 C 
BRANCH  49  50
ATOM     50  C   UNK A   6     -15.476   6.539  17.925  0.00  0.00    +0.000 A 
ATOM     51  N   UNK A   6     -15.195   5.253  18.002  0.00  0.00    +0.000 NA
ATOM     52  C   UNK A   6     -16.257   4.604  17.572  0.00  0.00    +0.000 A 
ATOM     53  N   UNK A   6     -17.192   5.448  17.228  0.00  0.00    +0.000 NA
ATOM     54  C   UNK A   6     -16.757   6.668  17.426  0.00  0.00    +0.000 A 
ENDBRANCH  49  50
ENDBRANCH  46  49
ENDBRANCH  43  46
ENDBRANCH  41  42
BRANCH  41  55
ATOM     55  CB  VAL A   5     -10.478   4.861  15.290  0.00  0.00    +0.000 C 
ATOM     56  CG2 VAL A   5      -9.510   5.749  16.105  0.00  0.00    +0.000 C 
ATOM     57  CG1 VAL A   5      -9.827   3.482  15.133  0.00  0.00    +0.000 C 
ENDBRANCH  41  55
ENDBRANCH  39  41
ENDBRANCH  36  37
BRANCH  36  58
ATOM     58  C   UNK A   4     -15.544   1.663  15.444  0.00  0.00    +0.000 C 
BRANCH  58  59
ATOM     59  C   UNK A   4     -16.207   0.534  14.632  0.00  0.00    +0.000 C 
ATOM     60  C   UNK A   4     -16.963  -0.393  15.571  0.00  0.00    +0.000 C 
ATOM     61  C   UNK A   4     -17.162   1.124  13.608  0.00  0.00    +0.000 C 
ENDBRANCH  58  59
ENDBRANCH  36  58
ENDBRANCH  33  36
ENDBRANCH  31  32
BRANCH  31  62
ATOM     62  N   UNK A   6     -12.014  -2.515  14.977  0.00  0.00    +0.000 N 
ATOM     63  C   LEU A   2     -12.659  -3.591  15.461  0.00  0.00    +0.000 C 
ATOM     64  O   LEU A   2     -13.077  -3.678  16.631  0.00  0.00    +0.000 OA
ATOM     65  H   UNK A   6     -11.654  -2.552  14.002  0.00  0.00    +0.000 HD
BRANCH  63  66
ATOM     66  CA  LEU A   2     -12.906  -4.736  14.469  0.00  0.00    +0.000 C 
BRANCH  66  67
ATOM     67  N   LEU A   2     -12.507  -5.976  15.104  0.00  0.00    +0.000 N 
ATOM     68  H   LEU A   2     -13.206  -6.450  15.711  0.00  0.00    +0.000 HD
ATOM     69  C   GLU A   1     -11.327  -6.550  14.973  0.00  0.00    +0.000 C 
ATOM     70  O   GLU A   1     -10.498  -6.238  14.132  0.00  0.00    +0.000 OA
BRANCH  69  71
ATOM     71  CA  GLU A   1     -11.117  -7.786  15.844  0.00  0.00    +0.000 C 
BRANCH  71  72
ATOM     72  N   GLU A   1     -10.614  -8.846  14.963  0.00  0.00    +0.000 NA
ATOM     73  H   GLU A   1      -9.940  -8.597  14.211  0.00  0.00    +0.000 HD
ENDBRANCH  71  72
BRANCH  71  74
ATOM     74  CB  GLU A   1     -10.113  -7.444  16.941  0.00  0.00    +0.000 C 
BRANCH  74  75
ATOM     75  CG  GLU A   1     -10.712  -6.573  18.075  0.00  0.00    +0.000 C 
BRANCH  75  76
ATOM     76  CD  GLU A   1      -9.825  -6.501  19.311  0.00  0.00    +0.000 C 
ATOM     77  OE2 GLU A   1      -9.747  -5.446  19.926  0.00  0.00    +0.000 OA
ATOM     78  OE1 GLU A   1      -9.239  -7.499  19.700  0.00  0.00    +0.000 OA
ENDBRANCH  75  76
ENDBRANCH  74  75
ENDBRANCH  71  74
ENDBRANCH  69  71
ENDBRANCH  66  67
BRANCH  66  79
ATOM     79  CB  LEU A   2     -14.402  -4.815  14.126  0.00  0.00    +0.000 C 
BRANCH  79  80
ATOM     80  CG  LEU A   2     -15.160  -3.585  13.630  0.00  0.00    +0.000 C 
ATOM     81  CD2 LEU A   2     -16.596  -4.003  13.383  0.00  0.00    +0.000 C 
ATOM     82  CD1 LEU A   2     -14.535  -3.022  12.358  0.00  0.00    +0.000 C 
ENDBRANCH  79  80
ENDBRANCH  66  79
ENDBRANCH  63  66
ENDBRANCH  31  62
ENDBRANCH  30  31
ENDBRANCH  29  30
ENDBRANCH  14  25
BRANCH   1  84
ATOM     83  C   UNK A   3     -11.651   0.633  10.326  0.00  0.00    +0.000 C 
ATOM     84  N   UNK A   4     -11.071  -0.394  10.960  0.00  0.00    +0.000 N 
ATOM     85  H   UNK A   4     -11.313  -0.520  11.964  0.00  0.00    +0.000 HD
ATOM     86  O   UNK A   3     -11.441   0.928   9.131  0.00  0.00    +0.000 OA
BRANCH  83  87
ATOM     87  C   UNK A   3     -12.593   1.474  11.183  0.00  0.00    +0.000 C 
BRANCH  87  90
ATOM     88  C   LEU A   2     -12.529   3.891  11.234  0.00  0.00    +0.000 C 
ATOM     89  O   LEU A   2     -12.732   3.965  12.448  0.00  0.00    +0.000 OA
ATOM     90  N   UNK A   3     -12.586   2.756  10.523  0.00  0.00    +0.000 N 
ATOM     91  H   UNK A   3     -12.626   2.801   9.485  0.00  0.00    +0.000 HD
BRANCH  88  92
ATOM     92  CA  LEU A   2     -12.312   5.194  10.483  0.00  0.00    +0.000 C 
BRANCH  92  94
ATOM     93  C   GLU A   1     -12.831   7.568  10.846  0.00  0.00    +0.000 C 
ATOM     94  N   LEU A   2     -12.645   6.334  11.342  0.00  0.00    +0.000 N 
ATOM     95  H   LEU A   2     -12.740   6.183  12.367  0.00  0.00    +0.000 HD
ATOM     96  O   GLU A   1     -12.748   7.732   9.622  0.00  0.00    +0.000 OA
BRANCH  93  97
ATOM     97  CA  GLU A   1     -13.133   8.766  11.775  0.00  0.00    +0.000 C 
BRANCH  97  98
ATOM     98  CB  GLU A   1     -11.876   9.446  12.322  0.00  0.00    +0.000 C 
ATOM     99  CG2 GLU A   1     -11.137   8.560  13.317  0.00  0.00    +0.000 C 
BRANCH  98 100
ATOM    100  CG1 GLU A   1     -11.020   9.851  11.131  0.00  0.00    +0.000 C 
ATOM    101  CD1 GLU A   1      -9.757  10.645  11.510  0.00  0.00    +0.000 C 
ENDBRANCH  98 100
ENDBRANCH  97  98
BRANCH  97 102
ATOM    102  N   GLU A   1     -13.917   8.381  12.909  0.00  0.00    +0.000 NA
ATOM    103  H   GLU A   1     -13.506   7.814  13.678  0.00  0.00    +0.000 HD
ENDBRANCH  97 102
ENDBRANCH  93  97
ENDBRANCH  92  94
BRANCH  92 104
ATOM    104  CB  LEU A   2     -10.834   5.261  10.003  0.00  0.00    +0.000 C 
BRANCH 104 105
ATOM    105  CG  LEU A   2      -9.707   5.368  11.024  0.00  0.00    +0.000 C 
BRANCH 105 106
ATOM    106  CD  LEU A   2      -8.994   4.055  11.287  0.00  0.00    +0.000 C 
ATOM    107  NE2 LEU A   2      -7.705   4.016  11.572  0.00  0.00    +0.000 N 
ATOM    108 HE21 LEU A   2      -7.238   3.103  11.742  0.00  0.00    +0.000 HD
ATOM    109 HE22 LEU A   2      -7.157   4.899  11.626  0.00  0.00    +0.000 HD
ATOM    110  OE1 LEU A   2      -9.599   3.005  11.233  0.00  0.00    +0.000 OA
ENDBRANCH 105 106
ENDBRANCH 104 105
ENDBRANCH  92 104
ENDBRANCH  88  92
ENDBRANCH  87  90
BRANCH  87 111
ATOM    111  C   UNK A   3     -14.034   0.922  11.265  0.00  0.00    +0.000 C 
BRANCH 111 112
ATOM    112  C   UNK A   3     -14.782   0.338  10.065  0.00  0.00    +0.000 A 
ATOM    113  C   UNK A   3     -15.980   0.927   9.685  0.00  0.00    +0.000 A 
ATOM    114  C   UNK A   3     -16.690   0.409   8.620  0.00  0.00    +0.000 A 
ATOM    115  C   UNK A   3     -16.221  -0.688   7.925  0.00  0.00    +0.000 A 
ATOM    116  C   UNK A   3     -15.042  -1.281   8.287  0.00  0.00    +0.000 A 
ATOM    117  C   UNK A   3     -14.324  -0.776   9.351  0.00  0.00    +0.000 A 
ENDBRANCH 111 112
ENDBRANCH  87 111
ENDBRANCH  83  87
ENDBRANCH   1  84
BRANCH   9 118
ATOM    118  C   UNK A   6      -7.325  -8.612  12.573  0.00  0.00    +0.000 C 
ATOM    119  O   UNK A   6      -8.409  -8.945  13.079  0.00  0.00    +0.000 OA
ENDBRANCH   9 118
BRANCH   5 120
ATOM    120  CB  VAL A   5     -10.368  -6.015  10.490  0.00  0.00    +0.000 C 
BRANCH 120 121
ATOM    121  CG  VAL A   5     -11.852  -5.784  10.189  0.00  0.00    +0.000 A 
ATOM    122  CD2 VAL A   5     -12.812  -6.509  10.878  0.00  0.00    +0.000 A 
ATOM    123  CE2 VAL A   5     -14.148  -6.351  10.527  0.00  0.00    +0.000 A 
ATOM    124  CZ  VAL A   5     -14.529  -5.476   9.504  0.00  0.00    +0.000 A 
ATOM    125  CE1 VAL A   5     -13.580  -4.755   8.833  0.00  0.00    +0.000 A 
ATOM    126  CD1 VAL A   5     -12.245  -4.900   9.175  0.00  0.00    +0.000 A 
ENDBRANCH 120 121
ENDBRANCH   5 120
TORSDOF 42
REMARK  Name = ../refined-set-2016/1ydb/1ydb_pocket.pdb
REMARK  144 active torsions:
REMARK  status: ('A' for Active; 'I' for Inactive)
REMARK    1  A    between atoms: _1  and  _5
REMARK    2  A    between atoms: _5  and  _6
REMARK    3  A    between atoms: _5  and  _8
REMARK    4  A    between atoms: _8  and  _9
REMARK    5  A    between atoms: _19  and  _21
REMARK    6  A    between atoms: _21  and  _22
REMARK    7  A    between atoms: _21  and  _24
REMARK    8  A    between atoms: _24  and  _25
REMARK    9  A    between atoms: _30  and  _31
REMARK   10  A    between atoms: _33  and  _35
REMARK   11  A    between atoms: _35  and  _36
REMARK   12  A    between atoms: _35  and  _38
REMARK   13  A    between atoms: _38  and  _39
REMARK   14  A    between atoms: _42  and  _43
REMARK   15  A    between atoms: _48  and  _50
REMARK   16  A    between atoms: _50  and  _51
REMARK   17  A    between atoms: _50  and  _53
REMARK   18  A    between atoms: _53  and  _54
REMARK   19  A    between atoms: _59  and  _61
REMARK   20  A    between atoms: _61  and  _62
REMARK   21  A    between atoms: _61  and  _64
REMARK   22  A    between atoms: _64  and  _65
REMARK   23  A    between atoms: _70  and  _72
REMARK   24  A    between atoms: _72  and  _73
REMARK   25  A    between atoms: _76  and  _78
REMARK   26  A    between atoms: _78  and  _79
REMARK   27  A    between atoms: _78  and  _81
REMARK   28  A    between atoms: _81  and  _82
REMARK   29  A    between atoms: _87  and  _89
REMARK   30  A    between atoms: _89  and  _90
REMARK   31  A    between atoms: _89  and  _92
REMARK   32  A    between atoms: _92  and  _93
REMARK   33  A    between atoms: _96  and  _98
REMARK   34  A    between atoms: _98  and  _99
REMARK   35  A    between atoms: _98  and  _101
REMARK   36  A    between atoms: _101  and  _102
REMARK   37  A    between atoms: _102  and  _103
REMARK   38  A    between atoms: _108  and  _110
REMARK   39  A    between atoms: _110  and  _111
REMARK   40  A    between atoms: _110  and  _113
REMARK   41  A    between atoms: _113  and  _114
REMARK   42  A    between atoms: _120  and  _122
REMARK   43  A    between atoms: _133  and  _136
REMARK   44  A    between atoms: _136  and  _137
REMARK   45  A    between atoms: _145  and  _146
REMARK   46  A    between atoms: _154  and  _156
REMARK   47  A    between atoms: _156  and  _157
REMARK   48  A    between atoms: _156  and  _159
REMARK   49  A    between atoms: _159  and  _160
REMARK   50  A    between atoms: _160  and  _161
REMARK   51  A    between atoms: _164  and  _166
REMARK   52  A    between atoms: _166  and  _167
REMARK   53  A    between atoms: _166  and  _169
REMARK   54  A    between atoms: _169  and  _170
REMARK   55  A    between atoms: _175  and  _177
REMARK   56  A    between atoms: _177  and  _178
REMARK   57  A    between atoms: _177  and  _180
REMARK   58  A    between atoms: _180  and  _181
REMARK   59  A    between atoms: _181  and  _182
REMARK   60  A    between atoms: _185  and  _187
REMARK   61  A    between atoms: _187  and  _188
REMARK   62  A    between atoms: _187  and  _190
REMARK   63  A    between atoms: _190  and  _191
REMARK   64  A    between atoms: _194  and  _196
REMARK   65  A    between atoms: _196  and  _197
REMARK   66  A    between atoms: _196  and  _199
REMARK   67  A    between atoms: _199  and  _200
REMARK   68  A    between atoms: _201  and  ZN_412
REMARK   69  A    between atoms: _205  and  _207
REMARK   70  A    between atoms: _207  and  _208
REMARK   71  A    between atoms: _207  and  _210
REMARK   72  A    between atoms: _210  and  _211
REMARK   73  A    between atoms: _214  and  _216
REMARK   74  A    between atoms: _216  and  _217
REMARK   75  A    between atoms: _216  and  _219
REMARK   76  A    between atoms: _222  and  _224
REMARK   77  A    between atoms: _224  and  _225
REMARK   78  A    between atoms: _224  and  _227
REMARK   79  A    between atoms: _227  and  _228
REMARK   80  A    between atoms: _233  and  _235
REMARK   81  A    between atoms: _235  and  _236
REMARK   82  A    between atoms: _235  and  _238
REMARK   83  A    between atoms: _238  and  _239
REMARK   84  A    between atoms: _245  and  _247
REMARK   85  A    between atoms: _247  and  _248
REMARK   86  A    between atoms: _247  and  _250
REMARK   87  A    between atoms: _253  and  _255
REMARK   88  A    between atoms: _255  and  _256
REMARK   89  A    between atoms: _255  and  _258
REMARK   90  A    between atoms: _258  and  _259
REMARK   91  A    between atoms: _262  and  _264
REMARK   92  A    between atoms: _264  and  _265
REMARK   93  A    between atoms: _268  and  _270
REMARK   94  A    between atoms: _270  and  _271
REMARK   95  A    between atoms: _270  and  _273
REMARK   96  A    between atoms: _276  and  _278
REMARK   97  A    between atoms: _278  and  _279
REMARK   98  A    between atoms: _278  and  _281
REMARK   99  A    between atoms: _281  and  _282
REMARK  100  A    between atoms: _285  and  _287
REMARK  101  A    between atoms: _287  and  _288
REMARK  102  A    between atoms: _290  and  _292
REMARK  103  A    between atoms: _292  and  _293
REMARK  104  A    between atoms: _292  and  _295
REMARK  105  A    between atoms: _295  and  _296
REMARK  106  A    between atoms: _298  and  _300
REMARK  107  A    between atoms: _300  and  _301
REMARK  108  A    between atoms: _300  and  _303
REMARK  109  A    between atoms: _303  and  _304
REMARK  110  A    between atoms: _310  and  _312
REMARK  111  A    between atoms: _312  and  _313
REMARK  112  A    between atoms: _312  and  _315
REMARK  113  A    between atoms: _315  and  _316
REMARK  114  A    between atoms: _319  and  _321
REMARK  115  A    between atoms: _321  and  _322
REMARK  116  A    between atoms: _321  and  _324
REMARK  117  A    between atoms: _324  and  _325
REMARK  118  A    between atoms: _329  and  _330
REMARK  119  A    between atoms: _336  and  _337
REMARK  120  A    between atoms: _342  and  _344
REMARK  121  A    between atoms: _344  and  _345
REMARK  122  A    between atoms: _344  and  _347
REMARK  123  A    between atoms: _347  and  _348
REMARK  124  A    between atoms: _351  and  _353
REMARK  125  A    between atoms: _353  and  _354
REMARK  126  A    between atoms: _353  and  _356
REMARK  127  A    between atoms: _356  and  _357
REMARK  128  A    between atoms: _360  and  _362
REMARK  129  A    between atoms: _362  and  _363
REMARK  130  A    between atoms: _362  and  _365
REMARK  131  A    between atoms: _368  and  _370
REMARK  132  A    between atoms: _370  and  _371
REMARK  133  A    between atoms: _370  and  _373
REMARK  134  A    between atoms: _373  and  _374
REMARK  135  A    between atoms: _384  and  _386
REMARK  136  A    between atoms: _386  and  _387
REMARK  137  A    between atoms: _386  and  _389
REMARK  138  A    between atoms: _389  and  _390
REMARK  139  A    between atoms: _395  and  _397
REMARK  140  A    between atoms: _397  and  _398
REMARK  141  A    between atoms: _397  and  _400
REMARK  142  A    between atoms: _400  and  _401
REMARK  143  A    between atoms: _401  and  _402
REMARK  144  A    between atoms: _402  and  _403
REMARK                            x       y       z     vdW  Elec       q    Type
REMARK                         _______ _______ _______ _____ _____    ______ ____
ROOT
ATOM      1  C   GLU A   1      -5.904  -8.503  21.214  0.00  0.00    +0.238 C 
ATOM      2  O   GLU A   1      -5.048  -8.886  21.993  0.00  0.00    -0.274 OA
ATOM      3  N   HIS A   2      -7.149  -8.197  21.606  0.00  0.00    -0.298 N 
ATOM      4  H   HIS A   2      -7.819  -7.806  20.913  0.00  0.00    +0.150 HD
ENDROOT
BRANCH   1   5
ATOM      5  CA  GLU A   1      -5.630  -8.304  19.745  0.00  0.00    +0.145 C 
BRANCH   5   6
ATOM      6  N   GLU A   1      -6.729  -8.897  19.009  0.00  0.00    -0.238 NA
ATOM      7  H   GLU A   1      -7.606  -8.351  18.890  0.00  0.00    +0.142 HD
ENDBRANCH   5   6
BRANCH   5   8
ATOM      8  CB  GLU A   1      -5.587  -6.830  19.371  0.00  0.00    +0.038 C 
BRANCH   8   9
ATOM      9  CG  GLU A   1      -5.151  -6.687  17.908  0.00  0.00    +0.116 C 
BRANCH   9  10
ATOM     10  CD  GLU A   1      -4.470  -5.347  17.658  0.00  0.00    +0.365 C 
ATOM     11  OE2 GLU A   1      -5.116  -4.328  17.841  0.00  0.00    -0.246 OA
ATOM     12  OE1 GLU A   1      -3.300  -5.336  17.309  0.00  0.00    -0.246 OA
ENDBRANCH   9  10
ENDBRANCH   8   9
ENDBRANCH   5   8
ENDBRANCH   1   5
BRANCH   3  13
ATOM     13  CA  HIS A   2      -7.582  -8.398  22.971  0.00  0.00    +0.143 C 
BRANCH  13  14
ATOM     14  C   HIS A   2      -7.987  -9.852  23.048  0.00  0.00    +0.227 C 
ATOM     15  O   HIS A   2      -8.367 -10.419  22.006  0.00  0.00    -0.286 OA
ENDBRANCH  13  14
BRANCH  13  16
ATOM     16  CB  HIS A   2      -8.790  -7.558  23.327  0.00  0.00    +0.075 C 
BRANCH  16  17
ATOM     17  CG  HIS A   2      -8.471  -6.079  23.436  0.00  0.00    +0.082 A 
ATOM     18  CD2 HIS A   2      -8.193  -5.454  24.627  0.00  0.00    +0.115 A 
ATOM     19  NE2 HIS A   2      -7.962  -4.199  24.323  0.00  0.00    -0.221 NA
ATOM     20  CE1 HIS A   2      -8.074  -3.983  23.041  0.00  0.00    +0.199 A 
ATOM     21  ND1 HIS A   2      -8.386  -5.135  22.475  0.00  0.00    -0.227 NA
ENDBRANCH  16  17
ENDBRANCH  13  16
ENDBRANCH   3  13
TORSDOF 9
REMARK  Name = ../refined-set-2016/1ydb/1ydb_pocket.pdb
REMARK  144 active torsions:
REMARK  status: ('A' for Active; 'I' for Inactive)
REMARK    1  A    between atoms: _1  and  _5
REMARK    2  A    between atoms: _5  and  _6
REMARK    3  A    between atoms: _5  and  _8
REMARK    4  A    between atoms: _8  and  _9
REMARK    5  A    between atoms: _19  and  _21
REMARK    6  A    between atoms: _21  and  _22
REMARK    7  A    between atoms: _21  and  _24
REMARK    8  A    between atoms: _24  and  _25
REMARK    9  A    between atoms: _30  and  _31
REMARK   10  A    between atoms: _33  and  _35
REMARK   11  A    between atoms: _35  and  _36
REMARK   12  A    between atoms: _35  and  _38
REMARK   13  A    between atoms: _38  and  _39
REMARK   14  A    between atoms: _42  and  _43
REMARK   15  A    between atoms: _48  and  _50
REMARK   16  A    between atoms: _50  and  _51
REMARK   17  A    between atoms: _50  and  _53
REMARK   18  A    between atoms: _53  and  _54
REMARK   19  A    between atoms: _59  and  _61
REMARK   20  A    between atoms: _61  and  _62
REMARK   21  A    between atoms: _61  and  _64
REMARK   22  A    between atoms: _64  and  _65
REMARK   23  A    between atoms: _70  and  _72
REMARK   24  A    between atoms: _72  and  _73
REMARK   25  A    between atoms: _76  and  _78
REMARK   26  A    between atoms: _78  and  _79
REMARK   27  A    between atoms: _78  and  _81
REMARK   28  A    between atoms: _81  and  _82
REMARK   29  A    between atoms: _87  and  _89
REMARK   30  A    between atoms: _89  and  _90
REMARK   31  A    between atoms: _89  and  _92
REMARK   32  A    between atoms: _92  and  _93
REMARK   33  A    between atoms: _96  and  _98
REMARK   34  A    between atoms: _98  and  _99
REMARK   35  A    between atoms: _98  and  _101
REMARK   36  A    between atoms: _101  and  _102
REMARK   37  A    between atoms: _102  and  _103
REMARK   38  A    between atoms: _108  and  _110
REMARK   39  A    between atoms: _110  and  _111
REMARK   40  A    between atoms: _110  and  _113
REMARK   41  A    between atoms: _113  and  _114
REMARK   42  A    between atoms: _120  and  _122
REMARK   43  A    between atoms: _133  and  _136
REMARK   44  A    between atoms: _136  and  _137
REMARK   45  A    between atoms: _145  and  _146
REMARK   46  A    between atoms: _154  and  _156
REMARK   47  A    between atoms: _156  and  _157
REMARK   48  A    between atoms: _156  and  _159
REMARK   49  A    between atoms: _159  and  _160
REMARK   50  A    between atoms: _160  and  _161
REMARK   51  A    between atoms: _164  and  _166
REMARK   52  A    between atoms: _166  and  _167
REMARK   53  A    between atoms: _166  and  _169
REMARK   54  A    between atoms: _169  and  _170
REMARK   55  A    between atoms: _175  and  _177
REMARK   56  A    between atoms: _177  and  _178
REMARK   57  A    between atoms: _177  and  _180
REMARK   58  A    between atoms: _180  and  _181
REMARK   59  A    between atoms: _181  and  _182
REMARK   60  A    between atoms: _185  and  _187
REMARK   61  A    between atoms: _187  and  _188
REMARK   62  A    between atoms: _187  and  _190
REMARK   63  A    between atoms: _190  and  _191
REMARK   64  A    between atoms: _194  and  _196
REMARK   65  A    between atoms: _196  and  _197
REMARK   66  A    between atoms: _196  and  _199
REMARK   67  A    between atoms: _199  and  _200
REMARK   68  A    between atoms: _201  and  ZN_412
REMARK   69  A    between atoms: _205  and  _207
REMARK   70  A    between atoms: _207  and  _208
REMARK   71  A    between atoms: _207  and  _210
REMARK   72  A    between atoms: _210  and  _211
REMARK   73  A    between atoms: _214  and  _216
REMARK   74  A    between atoms: _216  and  _217
REMARK   75  A    between atoms: _216  and  _219
REMARK   76  A    between atoms: _222  and  _224
REMARK   77  A    between atoms: _224  and  _225
REMARK   78  A    between atoms: _224  and  _227
REMARK   79  A    between atoms: _227  and  _228
REMARK   80  A    between atoms: _233  and  _235
REMARK   81  A    between atoms: _235  and  _236
REMARK   82  A    between atoms: _235  and  _238
REMARK   83  A    between atoms: _238  and  _239
REMARK   84  A    between atoms: _245  and  _247
REMARK   85  A    between atoms: _247  and  _248
REMARK   86  A    between atoms: _247  and  _250
REMARK   87  A    between atoms: _253  and  _255
REMARK   88  A    between atoms: _255  and  _256
REMARK   89  A    between atoms: _255  and  _258
REMARK   90  A    between atoms: _258  and  _259
REMARK   91  A    between atoms: _262  and  _264
REMARK   92  A    between atoms: _264  and  _265
REMARK   93  A    between atoms: _268  and  _270
REMARK   94  A    between atoms: _270  and  _271
REMARK   95  A    between atoms: _270  and  _273
REMARK   96  A    between atoms: _276  and  _278
REMARK   97  A    between atoms: _278  and  _279
REMARK   98  A    between atoms: _278  and  _281
REMARK   99  A    between atoms: _281  and  _282
REMARK  100  A    between atoms: _285  and  _287
REMARK  101  A    between atoms: _287  and  _288
REMARK  102  A    between atoms: _290  and  _292
REMARK  103  A    between atoms: _292  and  _293
REMARK  104  A    between atoms: _292  and  _295
REMARK  105  A    between atoms: _295  and  _296
REMARK  106  A    between atoms: _298  and  _300
REMARK  107  A    between atoms: _300  and  _301
REMARK  108  A    between atoms: _300  and  _303
REMARK  109  A    between atoms: _303  and  _304
REMARK  110  A    between atoms: _310  and  _312
REMARK  111  A    between atoms: _312  and  _313
REMARK  112  A    between atoms: _312  and  _315
REMARK  113  A    between atoms: _315  and  _316
REMARK  114  A    between atoms: _319  and  _321
REMARK  115  A    between atoms: _321  and  _322
REMARK  116  A    between atoms: _321  and  _324
REMARK  117  A    between atoms: _324  and  _325
REMARK  118  A    between atoms: _329  and  _330
REMARK  119  A    between atoms: _336  and  _337
REMARK  120  A    between atoms: _342  and  _344
REMARK  121  A    between atoms: _344  and  _345
REMARK  122  A    between atoms: _344  and  _347
REMARK  123  A    between atoms: _347  and  _348
REMARK  124  A    between atoms: _351  and  _353
REMARK  125  A    between atoms: _353  and  _354
REMARK  126  A    between atoms: _353  and  _356
REMARK  127  A    between atoms: _356  and  _357
REMARK  128  A    between atoms: _360  and  _362
REMARK  129  A    between atoms: _362  and  _363
REMARK  130  A    between atoms: _362  and  _365
REMARK  131  A    between atoms: _368  and  _370
REMARK  132  A    between atoms: _370  and  _371
REMARK  133  A    between atoms: _370  and  _373
REMARK  134  A    between atoms: _373  and  _374
REMARK  135  A    between atoms: _384  and  _386
REMARK  136  A    between atoms: _386  and  _387
REMARK  137  A    between atoms: _386  and  _389
REMARK  138  A    between atoms: _389  and  _390
REMARK  139  A    between atoms: _395  and  _397
REMARK  140  A    between atoms: _397  and  _398
REMARK  141  A    between atoms: _397  and  _400
REMARK  142  A    between atoms: _400  and  _401
REMARK  143  A    between atoms: _401  and  _402
REMARK  144  A    between atoms: _402  and  _403
REMARK                            x       y       z     vdW  Elec       q    Type
REMARK                         _______ _______ _______ _____ _____    ______ ____
ROOT
ATOM      1  CB  PHE A   1      -7.768  13.218  14.189  0.00  0.00    +0.051 C 
ENDROOT
BRANCH   1   2
ATOM      2  CG  PHE A   1      -7.221  11.840  14.538  0.00  0.00    -0.020 A 
ATOM      3  CD2 PHE A   1      -8.070  10.875  15.055  0.00  0.00    -0.004 A 
ATOM      4  CE2 PHE A   1      -7.566   9.646  15.403  0.00  0.00    -0.000 A 
ATOM      5  CZ  PHE A   1      -6.224   9.363  15.243  0.00  0.00    -0.000 A 
ATOM      6  CE1 PHE A   1      -5.373  10.318  14.726  0.00  0.00    -0.000 A 
ATOM      7  CD1 PHE A   1      -5.873  11.559  14.368  0.00  0.00    -0.004 A 
ENDBRANCH   1   2
BRANCH   1   8
ATOM      8  CA  PHE A   1      -7.727  14.214  15.390  0.00  0.00    +0.137 C 
BRANCH   8   9
ATOM      9  N   PHE A   1      -8.350  15.454  14.969  0.00  0.00    -0.239 NA
ATOM     10  H   PHE A   1      -8.648  15.548  13.977  0.00  0.00    +0.142 HD
ENDBRANCH   8   9
BRANCH   8  11
ATOM     11  C   PHE A   1      -6.288  14.394  15.912  0.00  0.00    +0.224 C 
ATOM     12  O   PHE A   1      -5.843  13.801  16.895  0.00  0.00    -0.287 OA
ENDBRANCH   8  11
ENDBRANCH   1   8
TORSDOF 4
REMARK  Name = ../refined-set-2016/1ydb/1ydb_pocket.pdb
REMARK  144 active torsions:
REMARK  status: ('A' for Active; 'I' for Inactive)
REMARK    1  A    between atoms: _1  and  _5
REMARK    2  A    between atoms: _5  and  _6
REMARK    3  A    between atoms: _5  and  _8
REMARK    4  A    between atoms: _8  and  _9
REMARK    5  A    between atoms: _19  and  _21
REMARK    6  A    between atoms: _21  and  _22
REMARK    7  A    between atoms: _21  and  _24
REMARK    8  A    between atoms: _24  and  _25
REMARK    9  A    between atoms: _30  and  _31
REMARK   10  A    between atoms: _33  and  _35
REMARK   11  A    between atoms: _35  and  _36
REMARK   12  A    between atoms: _35  and  _38
REMARK   13  A    between atoms: _38  and  _39
REMARK   14  A    between atoms: _42  and  _43
REMARK   15  A    between atoms: _48  and  _50
REMARK   16  A    between atoms: _50  and  _51
REMARK   17  A    between atoms: _50  and  _53
REMARK   18  A    between atoms: _53  and  _54
REMARK   19  A    between atoms: _59  and  _61
REMARK   20  A    between atoms: _61  and  _62
REMARK   21  A    between atoms: _61  and  _64
REMARK   22  A    between atoms: _64  and  _65
REMARK   23  A    between atoms: _70  and  _72
REMARK   24  A    between atoms: _72  and  _73
REMARK   25  A    between atoms: _76  and  _78
REMARK   26  A    between atoms: _78  and  _79
REMARK   27  A    between atoms: _78  and  _81
REMARK   28  A    between atoms: _81  and  _82
REMARK   29  A    between atoms: _87  and  _89
REMARK   30  A    between atoms: _89  and  _90
REMARK   31  A    between atoms: _89  and  _92
REMARK   32  A    between atoms: _92  and  _93
REMARK   33  A    between atoms: _96  and  _98
REMARK   34  A    between atoms: _98  and  _99
REMARK   35  A    between atoms: _98  and  _101
REMARK   36  A    between atoms: _101  and  _102
REMARK   37  A    between atoms: _102  and  _103
REMARK   38  A    between atoms: _108  and  _110
REMARK   39  A    between atoms: _110  and  _111
REMARK   40  A    between atoms: _110  and  _113
REMARK   41  A    between atoms: _113  and  _114
REMARK   42  A    between atoms: _120  and  _122
REMARK   43  A    between atoms: _133  and  _136
REMARK   44  A    between atoms: _136  and  _137
REMARK   45  A    between atoms: _145  and  _146
REMARK   46  A    between atoms: _154  and  _156
REMARK   47  A    between atoms: _156  and  _157
REMARK   48  A    between atoms: _156  and  _159
REMARK   49  A    between atoms: _159  and  _160
REMARK   50  A    between atoms: _160  and  _161
REMARK   51  A    between atoms: _164  and  _166
REMARK   52  A    between atoms: _166  and  _167
REMARK   53  A    between atoms: _166  and  _169
REMARK   54  A    between atoms: _169  and  _170
REMARK   55  A    between atoms: _175  and  _177
REMARK   56  A    between atoms: _177  and  _178
REMARK   57  A    between atoms: _177  and  _180
REMARK   58  A    between atoms: _180  and  _181
REMARK   59  A    between atoms: _181  and  _182
REMARK   60  A    between atoms: _185  and  _187
REMARK   61  A    between atoms: _187  and  _188
REMARK   62  A    between atoms: _187  and  _190
REMARK   63  A    between atoms: _190  and  _191
REMARK   64  A    between atoms: _194  and  _196
REMARK   65  A    between atoms: _196  and  _197
REMARK   66  A    between atoms: _196  and  _199
REMARK   67  A    between atoms: _199  and  _200
REMARK   68  A    between atoms: _201  and  ZN_412
REMARK   69  A    between atoms: _205  and  _207
REMARK   70  A    between atoms: _207  and  _208
REMARK   71  A    between atoms: _207  and  _210
REMARK   72  A    between atoms: _210  and  _211
REMARK   73  A    between atoms: _214  and  _216
REMARK   74  A    between atoms: _216  and  _217
REMARK   75  A    between atoms: _216  and  _219
REMARK   76  A    between atoms: _222  and  _224
REMARK   77  A    between atoms: _224  and  _225
REMARK   78  A    between atoms: _224  and  _227
REMARK   79  A    between atoms: _227  and  _228
REMARK   80  A    between atoms: _233  and  _235
REMARK   81  A    between atoms: _235  and  _236
REMARK   82  A    between atoms: _235  and  _238
REMARK   83  A    between atoms: _238  and  _239
REMARK   84  A    between atoms: _245  and  _247
REMARK   85  A    between atoms: _247  and  _248
REMARK   86  A    between atoms: _247  and  _250
REMARK   87  A    between atoms: _253  and  _255
REMARK   88  A    between atoms: _255  and  _256
REMARK   89  A    between atoms: _255  and  _258
REMARK   90  A    between atoms: _258  and  _259
REMARK   91  A    between atoms: _262  and  _264
REMARK   92  A    between atoms: _264  and  _265
REMARK   93  A    between atoms: _268  and  _270
REMARK   94  A    between atoms: _270  and  _271
REMARK   95  A    between atoms: _270  and  _273
REMARK   96  A    between atoms: _276  and  _278
REMARK   97  A    between atoms: _278  and  _279
REMARK   98  A    between atoms: _278  and  _281
REMARK   99  A    between atoms: _281  and  _282
REMARK  100  A    between atoms: _285  and  _287
REMARK  101  A    between atoms: _287  and  _288
REMARK  102  A    between atoms: _290  and  _292
REMARK  103  A    between atoms: _292  and  _293
REMARK  104  A    between atoms: _292  and  _295
REMARK  105  A    between atoms: _295  and  _296
REMARK  106  A    between atoms: _298  and  _300
REMARK  107  A    between atoms: _300  and  _301
REMARK  108  A    between atoms: _300  and  _303
REMARK  109  A    between atoms: _303  and  _304
REMARK  110  A    between atoms: _310  and  _312
REMARK  111  A    between atoms: _312  and  _313
REMARK  112  A    between atoms: _312  and  _315
REMARK  113  A    between atoms: _315  and  _316
REMARK  114  A    between atoms: _319  and  _321
REMARK  115  A    between atoms: _321  and  _322
REMARK  116  A    between atoms: _321  and  _324
REMARK  117  A    between atoms: _324  and  _325
REMARK  118  A    between atoms: _329  and  _330
REMARK  119  A    between atoms: _336  and  _337
REMARK  120  A    between atoms: _342  and  _344
REMARK  121  A    between atoms: _344  and  _345
REMARK  122  A    between atoms: _344  and  _347
REMARK  123  A    between atoms: _347  and  _348
REMARK  124  A    between atoms: _351  and  _353
REMARK  125  A    between atoms: _353  and  _354
REMARK  126  A    between atoms: _353  and  _356
REMARK  127  A    between atoms: _356  and  _357
REMARK  128  A    between atoms: _360  and  _362
REMARK  129  A    between atoms: _362  and  _363
REMARK  130  A    between atoms: _362  and  _365
REMARK  131  A    between atoms: _368  and  _370
REMARK  132  A    between atoms: _370  and  _371
REMARK  133  A    between atoms: _370  and  _373
REMARK  134  A    between atoms: _373  and  _374
REMARK  135  A    between atoms: _384  and  _386
REMARK  136  A    between atoms: _386  and  _387
REMARK  137  A    between atoms: _386  and  _389
REMARK  138  A    between atoms: _389  and  _390
REMARK  139  A    between atoms: _395  and  _397
REMARK  140  A    between atoms: _397  and  _398
REMARK  141  A    between atoms: _397  and  _400
REMARK  142  A    between atoms: _400  and  _401
REMARK  143  A    between atoms: _401  and  _402
REMARK  144  A    between atoms: _402  and  _403
REMARK                            x       y       z     vdW  Elec       q    Type
REMARK                         _______ _______ _______ _____ _____    ______ ____
ROOT
ATOM      1  CA  VAL A   1      -3.680  12.296  20.123  0.00  0.00    +0.133 C 
ENDROOT
BRANCH   1   2
ATOM      2  CB  VAL A   1      -2.983  11.745  18.820  0.00  0.00    +0.023 C 
ATOM      3  CG2 VAL A   1      -4.064  11.000  18.031  0.00  0.00    +0.002 C 
ATOM      4  CG1 VAL A   1      -2.348  12.824  17.942  0.00  0.00    +0.002 C 
ENDBRANCH   1   2
BRANCH   1   5
ATOM      5  N   VAL A   1      -4.768  13.178  19.764  0.00  0.00    -0.239 NA
ATOM      6  H   VAL A   1      -4.800  13.607  18.817  0.00  0.00    +0.142 HD
ENDBRANCH   1   5
BRANCH   1   7
ATOM      7  C   VAL A   1      -2.687  12.981  21.058  0.00  0.00    +0.224 C 
ATOM      8  O   VAL A   1      -1.682  12.408  21.445  0.00  0.00    -0.287 OA
ENDBRANCH   1   7
TORSDOF 3
REMARK  Name = ../refined-set-2016/1ydb/1ydb_pocket.pdb
REMARK  144 active torsions:
REMARK  status: ('A' for Active; 'I' for Inactive)
REMARK    1  A    between atoms: _1  and  _5
REMARK    2  A    between atoms: _5  and  _6
REMARK    3  A    between atoms: _5  and  _8
REMARK    4  A    between atoms: _8  and  _9
REMARK    5  A    between atoms: _19  and  _21
REMARK    6  A    between atoms: _21  and  _22
REMARK    7  A    between atoms: _21  and  _24
REMARK    8  A    between atoms: _24  and  _25
REMARK    9  A    between atoms: _30  and  _31
REMARK   10  A    between atoms: _33  and  _35
REMARK   11  A    between atoms: _35  and  _36
REMARK   12  A    between atoms: _35  and  _38
REMARK   13  A    between atoms: _38  and  _39
REMARK   14  A    between atoms: _42  and  _43
REMARK   15  A    between atoms: _48  and  _50
REMARK   16  A    between atoms: _50  and  _51
REMARK   17  A    between atoms: _50  and  _53
REMARK   18  A    between atoms: _53  and  _54
REMARK   19  A    between atoms: _59  and  _61
REMARK   20  A    between atoms: _61  and  _62
REMARK   21  A    between atoms: _61  and  _64
REMARK   22  A    between atoms: _64  and  _65
REMARK   23  A    between atoms: _70  and  _72
REMARK   24  A    between atoms: _72  and  _73
REMARK   25  A    between atoms: _76  and  _78
REMARK   26  A    between atoms: _78  and  _79
REMARK   27  A    between atoms: _78  and  _81
REMARK   28  A    between atoms: _81  and  _82
REMARK   29  A    between atoms: _87  and  _89
REMARK   30  A    between atoms: _89  and  _90
REMARK   31  A    between atoms: _89  and  _92
REMARK   32  A    between atoms: _92  and  _93
REMARK   33  A    between atoms: _96  and  _98
REMARK   34  A    between atoms: _98  and  _99
REMARK   35  A    between atoms: _98  and  _101
REMARK   36  A    between atoms: _101  and  _102
REMARK   37  A    between atoms: _102  and  _103
REMARK   38  A    between atoms: _108  and  _110
REMARK   39  A    between atoms: _110  and  _111
REMARK   40  A    between atoms: _110  and  _113
REMARK   41  A    between atoms: _113  and  _114
REMARK   42  A    between atoms: _120  and  _122
REMARK   43  A    between atoms: _133  and  _136
REMARK   44  A    between atoms: _136  and  _137
REMARK   45  A    between atoms: _145  and  _146
REMARK   46  A    between atoms: _154  and  _156
REMARK   47  A    between atoms: _156  and  _157
REMARK   48  A    between atoms: _156  and  _159
REMARK   49  A    between atoms: _159  and  _160
REMARK   50  A    between atoms: _160  and  _161
REMARK   51  A    between atoms: _164  and  _166
REMARK   52  A    between atoms: _166  and  _167
REMARK   53  A    between atoms: _166  and  _169
REMARK   54  A    between atoms: _169  and  _170
REMARK   55  A    between atoms: _175  and  _177
REMARK   56  A    between atoms: _177  and  _178
REMARK   57  A    between atoms: _177  and  _180
REMARK   58  A    between atoms: _180  and  _181
REMARK   59  A    between atoms: _181  and  _182
REMARK   60  A    between atoms: _185  and  _187
REMARK   61  A    between atoms: _187  and  _188
REMARK   62  A    between atoms: _187  and  _190
REMARK   63  A    between atoms: _190  and  _191
REMARK   64  A    between atoms: _194  and  _196
REMARK   65  A    between atoms: _196  and  _197
REMARK   66  A    between atoms: _196  and  _199
REMARK   67  A    between atoms: _199  and  _200
REMARK   68  A    between atoms: _201  and  ZN_412
REMARK   69  A    between atoms: _205  and  _207
REMARK   70  A    between atoms: _207  and  _208
REMARK   71  A    between atoms: _207  and  _210
REMARK   72  A    between atoms: _210  and  _211
REMARK   73  A    between atoms: _214  and  _216
REMARK   74  A    between atoms: _216  and  _217
REMARK   75  A    between atoms: _216  and  _219
REMARK   76  A    between atoms: _222  and  _224
REMARK   77  A    between atoms: _224  and  _225
REMARK   78  A    between atoms: _224  and  _227
REMARK   79  A    between atoms: _227  and  _228
REMARK   80  A    between atoms: _233  and  _235
REMARK   81  A    between atoms: _235  and  _236
REMARK   82  A    between atoms: _235  and  _238
REMARK   83  A    between atoms: _238  and  _239
REMARK   84  A    between atoms: _245  and  _247
REMARK   85  A    between atoms: _247  and  _248
REMARK   86  A    between atoms: _247  and  _250
REMARK   87  A    between atoms: _253  and  _255
REMARK   88  A    between atoms: _255  and  _256
REMARK   89  A    between atoms: _255  and  _258
REMARK   90  A    between atoms: _258  and  _259
REMARK   91  A    between atoms: _262  and  _264
REMARK   92  A    between atoms: _264  and  _265
REMARK   93  A    between atoms: _268  and  _270
REMARK   94  A    between atoms: _270  and  _271
REMARK   95  A    between atoms: _270  and  _273
REMARK   96  A    between atoms: _276  and  _278
REMARK   97  A    between atoms: _278  and  _279
REMARK   98  A    between atoms: _278  and  _281
REMARK   99  A    between atoms: _281  and  _282
REMARK  100  A    between atoms: _285  and  _287
REMARK  101  A    between atoms: _287  and  _288
REMARK  102  A    between atoms: _290  and  _292
REMARK  103  A    between atoms: _292  and  _293
REMARK  104  A    between atoms: _292  and  _295
REMARK  105  A    between atoms: _295  and  _296
REMARK  106  A    between atoms: _298  and  _300
REMARK  107  A    between atoms: _300  and  _301
REMARK  108  A    between atoms: _300  and  _303
REMARK  109  A    between atoms: _303  and  _304
REMARK  110  A    between atoms: _310  and  _312
REMARK  111  A    between atoms: _312  and  _313
REMARK  112  A    between atoms: _312  and  _315
REMARK  113  A    between atoms: _315  and  _316
REMARK  114  A    between atoms: _319  and  _321
REMARK  115  A    between atoms: _321  and  _322
REMARK  116  A    between atoms: _321  and  _324
REMARK  117  A    between atoms: _324  and  _325
REMARK  118  A    between atoms: _329  and  _330
REMARK  119  A    between atoms: _336  and  _337
REMARK  120  A    between atoms: _342  and  _344
REMARK  121  A    between atoms: _344  and  _345
REMARK  122  A    between atoms: _344  and  _347
REMARK  123  A    between atoms: _347  and  _348
REMARK  124  A    between atoms: _351  and  _353
REMARK  125  A    between atoms: _353  and  _354
REMARK  126  A    between atoms: _353  and  _356
REMARK  127  A    between atoms: _356  and  _357
REMARK  128  A    between atoms: _360  and  _362
REMARK  129  A    between atoms: _362  and  _363
REMARK  130  A    between atoms: _362  and  _365
REMARK  131  A    between atoms: _368  and  _370
REMARK  132  A    between atoms: _370  and  _371
REMARK  133  A    between atoms: _370  and  _373
REMARK  134  A    between atoms: _373  and  _374
REMARK  135  A    between atoms: _384  and  _386
REMARK  136  A    between atoms: _386  and  _387
REMARK  137  A    between atoms: _386  and  _389
REMARK  138  A    between atoms: _389  and  _390
REMARK  139  A    between atoms: _395  and  _397
REMARK  140  A    between atoms: _397  and  _398
REMARK  141  A    between atoms: _397  and  _400
REMARK  142  A    between atoms: _400  and  _401
REMARK  143  A    between atoms: _401  and  _402
REMARK  144  A    between atoms: _402  and  _403
REMARK                            x       y       z     vdW  Elec       q    Type
REMARK                         _______ _______ _______ _____ _____    ______ ____
ROOT
ATOM      1  C   ALA A   2     -12.256   5.025  21.060  0.00  0.00    +0.241 C 
ATOM      2  N   VAL A   3     -11.836   3.772  21.251  0.00  0.00    -0.297 N 
ATOM      3  H   VAL A   3     -11.451   3.489  22.175  0.00  0.00    +0.150 HD
ATOM      4  O   ALA A   2     -12.618   5.419  19.932  0.00  0.00    -0.273 OA
ENDROOT
BRANCH   1   5
ATOM      5  CA  ALA A   2     -12.200   6.012  22.208  0.00  0.00    +0.149 C 
ATOM      6  CB  ALA A   2     -13.603   6.459  22.454  0.00  0.00    +0.031 C 
BRANCH   5   9
ATOM      7  C   LEU A   1     -10.404   7.678  22.395  0.00  0.00    +0.238 C 
ATOM      8  O   LEU A   1     -10.087   7.373  23.550  0.00  0.00    -0.274 OA
ATOM      9  N   ALA A   2     -11.375   7.085  21.708  0.00  0.00    -0.297 N 
ATOM     10  H   ALA A   2     -11.553   7.419  20.739  0.00  0.00    +0.150 HD
BRANCH   7  11
ATOM     11  CA  LEU A   1      -9.646   8.755  21.659  0.00  0.00    +0.145 C 
BRANCH  11  12
ATOM     12  N   LEU A   1      -8.996   9.732  22.536  0.00  0.00    -0.238 NA
ATOM     13  H   LEU A   1      -8.402   9.394  23.320  0.00  0.00    +0.142 HD
ENDBRANCH  11  12
BRANCH  11  14
ATOM     14  CB  LEU A   1      -8.668   8.013  20.803  0.00  0.00    +0.026 C 
BRANCH  14  15
ATOM     15  CG  LEU A   1      -7.637   8.669  19.897  0.00  0.00    +0.002 C 
ATOM     16  CD2 LEU A   1      -8.092   9.950  19.220  0.00  0.00    +0.000 C 
ATOM     17  CD1 LEU A   1      -7.489   7.707  18.742  0.00  0.00    +0.000 C 
ENDBRANCH  14  15
ENDBRANCH  11  14
ENDBRANCH   7  11
ENDBRANCH   5   9
ENDBRANCH   1   5
BRANCH   2  18
ATOM     18  CA  VAL A   3     -11.916   2.798  20.164  0.00  0.00    +0.149 C 
BRANCH  18  19
ATOM     19  C   VAL A   3     -12.881   1.745  20.700  0.00  0.00    +0.241 C 
ATOM     20  O   VAL A   3     -12.795   1.329  21.866  0.00  0.00    -0.273 OA
ATOM     21  N   LEU A   4     -13.854   1.415  19.837  0.00  0.00    -0.298 N 
ATOM     22  H   LEU A   4     -13.869   1.890  18.912  0.00  0.00    +0.150 HD
BRANCH  21  23
ATOM     23  CA  LEU A   4     -14.887   0.434  20.118  0.00  0.00    +0.137 C 
BRANCH  23  24
ATOM     24  C   LEU A   4     -14.337  -0.812  19.457  0.00  0.00    +0.227 C 
ATOM     25  O   LEU A   4     -14.128  -0.743  18.249  0.00  0.00    -0.286 OA
ENDBRANCH  23  24
BRANCH  23  26
ATOM     26  CB  LEU A   4     -16.196   0.749  19.435  0.00  0.00    +0.028 C 
BRANCH  26  27
ATOM     27  CG  LEU A   4     -17.538   0.689  20.123  0.00  0.00    +0.002 C 
ATOM     28  CD2 LEU A   4     -17.610  -0.386  21.176  0.00  0.00    +0.000 C 
ATOM     29  CD1 LEU A   4     -18.577   0.420  19.039  0.00  0.00    +0.000 C 
ENDBRANCH  26  27
ENDBRANCH  23  26
ENDBRANCH  21  23
ENDBRANCH  18  19
BRANCH  18  30
ATOM     30  CB  VAL A   3     -10.521   2.200  19.849  0.00  0.00    +0.027 C 
ATOM     31  CG2 VAL A   3      -9.510   3.283  19.524  0.00  0.00    +0.002 C 
ATOM     32  CG1 VAL A   3     -10.628   1.308  18.603  0.00  0.00    +0.002 C 
ENDBRANCH  18  30
ENDBRANCH   2  18
TORSDOF 13
REMARK  Name = ../refined-set-2016/1ydb/1ydb_pocket.pdb
REMARK  144 active torsions:
REMARK  status: ('A' for Active; 'I' for Inactive)
REMARK    1  A    between atoms: _1  and  _5
REMARK    2  A    between atoms: _5  and  _6
REMARK    3  A    between atoms: _5  and  _8
REMARK    4  A    between atoms: _8  and  _9
REMARK    5  A    between atoms: _19  and  _21
REMARK    6  A    between atoms: _21  and  _22
REMARK    7  A    between atoms: _21  and  _24
REMARK    8  A    between atoms: _24  and  _25
REMARK    9  A    between atoms: _30  and  _31
REMARK   10  A    between atoms: _33  and  _35
REMARK   11  A    between atoms: _35  and  _36
REMARK   12  A    between atoms: _35  and  _38
REMARK   13  A    between atoms: _38  and  _39
REMARK   14  A    between atoms: _42  and  _43
REMARK   15  A    between atoms: _48  and  _50
REMARK   16  A    between atoms: _50  and  _51
REMARK   17  A    between atoms: _50  and  _53
REMARK   18  A    between atoms: _53  and  _54
REMARK   19  A    between atoms: _59  and  _61
REMARK   20  A    between atoms: _61  and  _62
REMARK   21  A    between atoms: _61  and  _64
REMARK   22  A    between atoms: _64  and  _65
REMARK   23  A    between atoms: _70  and  _72
REMARK   24  A    between atoms: _72  and  _73
REMARK   25  A    between atoms: _76  and  _78
REMARK   26  A    between atoms: _78  and  _79
REMARK   27  A    between atoms: _78  and  _81
REMARK   28  A    between atoms: _81  and  _82
REMARK   29  A    between atoms: _87  and  _89
REMARK   30  A    between atoms: _89  and  _90
REMARK   31  A    between atoms: _89  and  _92
REMARK   32  A    between atoms: _92  and  _93
REMARK   33  A    between atoms: _96  and  _98
REMARK   34  A    between atoms: _98  and  _99
REMARK   35  A    between atoms: _98  and  _101
REMARK   36  A    between atoms: _101  and  _102
REMARK   37  A    between atoms: _102  and  _103
REMARK   38  A    between atoms: _108  and  _110
REMARK   39  A    between atoms: _110  and  _111
REMARK   40  A    between atoms: _110  and  _113
REMARK   41  A    between atoms: _113  and  _114
REMARK   42  A    between atoms: _120  and  _122
REMARK   43  A    between atoms: _133  and  _136
REMARK   44  A    between atoms: _136  and  _137
REMARK   45  A    between atoms: _145  and  _146
REMARK   46  A    between atoms: _154  and  _156
REMARK   47  A    between atoms: _156  and  _157
REMARK   48  A    between atoms: _156  and  _159
REMARK   49  A    between atoms: _159  and  _160
REMARK   50  A    between atoms: _160  and  _161
REMARK   51  A    between atoms: _164  and  _166
REMARK   52  A    between atoms: _166  and  _167
REMARK   53  A    between atoms: _166  and  _169
REMARK   54  A    between atoms: _169  and  _170
REMARK   55  A    between atoms: _175  and  _177
REMARK   56  A    between atoms: _177  and  _178
REMARK   57  A    between atoms: _177  and  _180
REMARK   58  A    between atoms: _180  and  _181
REMARK   59  A    between atoms: _181  and  _182
REMARK   60  A    between atoms: _185  and  _187
REMARK   61  A    between atoms: _187  and  _188
REMARK   62  A    between atoms: _187  and  _190
REMARK   63  A    between atoms: _190  and  _191
REMARK   64  A    between atoms: _194  and  _196
REMARK   65  A    between atoms: _196  and  _197
REMARK   66  A    between atoms: _196  and  _199
REMARK   67  A    between atoms: _199  and  _200
REMARK   68  A    between atoms: _201  and  ZN_412
REMARK   69  A    between atoms: _205  and  _207
REMARK   70  A    between atoms: _207  and  _208
REMARK   71  A    between atoms: _207  and  _210
REMARK   72  A    between atoms: _210  and  _211
REMARK   73  A    between atoms: _214  and  _216
REMARK   74  A    between atoms: _216  and  _217
REMARK   75  A    between atoms: _216  and  _219
REMARK   76  A    between atoms: _222  and  _224
REMARK   77  A    between atoms: _224  and  _225
REMARK   78  A    between atoms: _224  and  _227
REMARK   79  A    between atoms: _227  and  _228
REMARK   80  A    between atoms: _233  and  _235
REMARK   81  A    between atoms: _235  and  _236
REMARK   82  A    between atoms: _235  and  _238
REMARK   83  A    between atoms: _238  and  _239
REMARK   84  A    between atoms: _245  and  _247
REMARK   85  A    between atoms: _247  and  _248
REMARK   86  A    between atoms: _247  and  _250
REMARK   87  A    between atoms: _253  and  _255
REMARK   88  A    between atoms: _255  and  _256
REMARK   89  A    between atoms: _255  and  _258
REMARK   90  A    between atoms: _258  and  _259
REMARK   91  A    between atoms: _262  and  _264
REMARK   92  A    between atoms: _264  and  _265
REMARK   93  A    between atoms: _268  and  _270
REMARK   94  A    between atoms: _270  and  _271
REMARK   95  A    between atoms: _270  and  _273
REMARK   96  A    between atoms: _276  and  _278
REMARK   97  A    between atoms: _278  and  _279
REMARK   98  A    between atoms: _278  and  _281
REMARK   99  A    between atoms: _281  and  _282
REMARK  100  A    between atoms: _285  and  _287
REMARK  101  A    between atoms: _287  and  _288
REMARK  102  A    between atoms: _290  and  _292
REMARK  103  A    between atoms: _292  and  _293
REMARK  104  A    between atoms: _292  and  _295
REMARK  105  A    between atoms: _295  and  _296
REMARK  106  A    between atoms: _298  and  _300
REMARK  107  A    between atoms: _300  and  _301
REMARK  108  A    between atoms: _300  and  _303
REMARK  109  A    between atoms: _303  and  _304
REMARK  110  A    between atoms: _310  and  _312
REMARK  111  A    between atoms: _312  and  _313
REMARK  112  A    between atoms: _312  and  _315
REMARK  113  A    between atoms: _315  and  _316
REMARK  114  A    between atoms: _319  and  _321
REMARK  115  A    between atoms: _321  and  _322
REMARK  116  A    between atoms: _321  and  _324
REMARK  117  A    between atoms: _324  and  _325
REMARK  118  A    between atoms: _329  and  _330
REMARK  119  A    between atoms: _336  and  _337
REMARK  120  A    between atoms: _342  and  _344
REMARK  121  A    between atoms: _344  and  _345
REMARK  122  A    between atoms: _344  and  _347
REMARK  123  A    between atoms: _347  and  _348
REMARK  124  A    between atoms: _351  and  _353
REMARK  125  A    between atoms: _353  and  _354
REMARK  126  A    between atoms: _353  and  _356
REMARK  127  A    between atoms: _356  and  _357
REMARK  128  A    between atoms: _360  and  _362
REMARK  129  A    between atoms: _362  and  _363
REMARK  130  A    between atoms: _362  and  _365
REMARK  131  A    between atoms: _368  and  _370
REMARK  132  A    between atoms: _370  and  _371
REMARK  133  A    between atoms: _370  and  _373
REMARK  134  A    between atoms: _373  and  _374
REMARK  135  A    between atoms: _384  and  _386
REMARK  136  A    between atoms: _386  and  _387
REMARK  137  A    between atoms: _386  and  _389
REMARK  138  A    between atoms: _389  and  _390
REMARK  139  A    between atoms: _395  and  _397
REMARK  140  A    between atoms: _397  and  _398
REMARK  141  A    between atoms: _397  and  _400
REMARK  142  A    between atoms: _400  and  _401
REMARK  143  A    between atoms: _401  and  _402
REMARK  144  A    between atoms: _402  and  _403
REMARK                            x       y       z     vdW  Elec       q    Type
REMARK                         _______ _______ _______ _____ _____    ______ ____
ROOT
ATOM      1  CA  THR A   5       0.164   0.104  16.136  0.00  0.00    +0.176 C 
ENDROOT
BRANCH   1   2
ATOM      2  C   THR A   5       0.992   1.348  16.482  0.00  0.00    +0.246 C 
ATOM      3  O   THR A   5       0.486   2.276  17.157  0.00  0.00    -0.273 OA
ATOM      4  N   PRO A   6       2.276   1.416  16.092  0.00  0.00    -0.272 N 
ATOM      5  CA  PRO A   6       3.077   2.616  16.168  0.00  0.00    +0.152 C 
ATOM      6  CB  PRO A   6       4.313   2.276  15.368  0.00  0.00    +0.031 C 
ATOM      7  CG  PRO A   6       4.492   0.821  15.685  0.00  0.00    +0.024 C 
ATOM      8  CD  PRO A   6       3.058   0.347  15.485  0.00  0.00    +0.094 C 
BRANCH   5   9
ATOM      9  C   PRO A   6       2.268   3.793  15.612  0.00  0.00    +0.244 C 
ATOM     10  N   PRO A   7       2.289   5.004  16.198  0.00  0.00    -0.272 N 
ATOM     11  CA  PRO A   7       3.115   5.395  17.329  0.00  0.00    +0.152 C 
ATOM     12  CB  PRO A   7       3.105   6.920  17.179  0.00  0.00    +0.031 C 
ATOM     13  CG  PRO A   7       1.677   7.208  16.783  0.00  0.00    +0.024 C 
ATOM     14  CD  PRO A   7       1.482   6.136  15.710  0.00  0.00    +0.094 C 
ATOM     15  O   PRO A   6       1.549   3.602  14.619  0.00  0.00    -0.273 OA
BRANCH  11  16
ATOM     16  C   PRO A   7       2.744   4.876  18.743  0.00  0.00    +0.241 C 
ATOM     17  O   PRO A   7       3.413   5.264  19.691  0.00  0.00    -0.273 OA
ATOM     18  N   LEU A   8       1.724   4.029  18.966  0.00  0.00    -0.297 N 
ATOM     19  H   LEU A   8       1.122   3.775  18.157  0.00  0.00    +0.150 HD
BRANCH  18  20
ATOM     20  CA  LEU A   8       1.399   3.436  20.272  0.00  0.00    +0.149 C 
BRANCH  20  21
ATOM     21  C   LEU A   8       1.076   4.429  21.416  0.00  0.00    +0.241 C 
ATOM     22  O   LEU A   8       1.184   4.145  22.619  0.00  0.00    -0.273 OA
ATOM     23  N   LEU A   9       0.582   5.609  21.018  0.00  0.00    -0.298 N 
ATOM     24  H   LEU A   9       0.429   5.761  20.001  0.00  0.00    +0.150 HD
BRANCH  23  25
ATOM     25  CA  LEU A   9       0.248   6.692  21.937  0.00  0.00    +0.137 C 
BRANCH  25  26
ATOM     26  C   LEU A   9      -0.819   6.260  22.934  0.00  0.00    +0.227 C 
ATOM     27  O   LEU A   9      -1.788   5.560  22.628  0.00  0.00    -0.286 OA
ENDBRANCH  25  26
BRANCH  25  28
ATOM     28  CB  LEU A   9      -0.252   7.906  21.141  0.00  0.00    +0.028 C 
BRANCH  28  29
ATOM     29  CG  LEU A   9       0.659   8.389  20.009  0.00  0.00    +0.002 C 
ATOM     30  CD2 LEU A   9       1.998   8.781  20.581  0.00  0.00    +0.000 C 
ATOM     31  CD1 LEU A   9       0.018   9.557  19.271  0.00  0.00    +0.000 C 
ENDBRANCH  28  29
ENDBRANCH  25  28
ENDBRANCH  23  25
ENDBRANCH  20  21
BRANCH  20  32
ATOM     32  CB  LEU A   8       2.570   2.498  20.707  0.00  0.00    +0.029 C 
BRANCH  32  33
ATOM     33  CG  LEU A   8       2.974   1.330  19.774  0.00  0.00    +0.002 C 
ATOM     34  CD2 LEU A   8       4.350   0.806  20.168  0.00  0.00    +0.000 C 
ATOM     35  CD1 LEU A   8       1.880   0.260  19.804  0.00  0.00    +0.000 C 
ENDBRANCH  32  33
ENDBRANCH  20  32
ENDBRANCH  18  20
ENDBRANCH  11  16
ENDBRANCH   5   9
ENDBRANCH   1   2
BRANCH   1  38
ATOM     36  C   THR A   4      -0.990  -1.042  17.983  0.00  0.00    +0.243 C 
ATOM     37  O   THR A   4      -0.314  -2.060  17.821  0.00  0.00    -0.273 OA
ATOM     38  N   THR A   5      -0.889   0.010  17.135  0.00  0.00    -0.295 N 
ATOM     39  H   THR A   5      -1.589   0.777  17.201  0.00  0.00    +0.150 HD
BRANCH  36  40
ATOM     40  CA  THR A   4      -2.004  -0.972  19.113  0.00  0.00    +0.176 C 
BRANCH  40  43
ATOM     41  C   PHE A   3      -2.344   1.254  19.992  0.00  0.00    +0.241 C 
ATOM     42  O   PHE A   3      -1.302   1.163  20.664  0.00  0.00    -0.273 OA
ATOM     43  N   THR A   4      -2.758   0.268  19.187  0.00  0.00    -0.295 N 
ATOM     44  H   THR A   4      -3.618   0.389  18.615  0.00  0.00    +0.150 HD
BRANCH  41  45
ATOM     45  CA  PHE A   3      -3.097   2.588  19.982  0.00  0.00    +0.153 C 
BRANCH  45  48
ATOM     46  C   SER A   2      -3.579   2.490  22.368  0.00  0.00    +0.243 C 
ATOM     47  O   SER A   2      -4.404   1.591  22.223  0.00  0.00    -0.273 OA
ATOM     48  N   PHE A   3      -3.008   3.114  21.331  0.00  0.00    -0.297 N 
ATOM     49  H   PHE A   3      -2.487   3.999  21.496  0.00  0.00    +0.150 HD
BRANCH  46  50
ATOM     50  CA  SER A   2      -3.145   2.933  23.758  0.00  0.00    +0.178 C 
BRANCH  50  53
ATOM     51  C   GLY A   1      -4.282   2.940  25.922  0.00  0.00    +0.240 C 
ATOM     52  O   GLY A   1      -4.170   4.168  26.071  0.00  0.00    -0.274 OA
ATOM     53  N   SER A   2      -3.890   2.302  24.824  0.00  0.00    -0.295 N 
ATOM     54  H   SER A   2      -4.132   1.295  24.727  0.00  0.00    +0.150 HD
BRANCH  51  55
ATOM     55  CA  GLY A   1      -4.919   2.076  26.990  0.00  0.00    +0.169 C 
BRANCH  55  56
ATOM     56  N   GLY A   1      -5.959   2.755  27.760  0.00  0.00    -0.236 NA
ATOM     57  H   GLY A   1      -6.512   3.514  27.313  0.00  0.00    +0.142 HD
ENDBRANCH  55  56
ENDBRANCH  51  55
ENDBRANCH  50  53
BRANCH  50  58
ATOM     58  CB  SER A   2      -1.661   2.593  23.885  0.00  0.00    +0.166 C 
BRANCH  58  59
ATOM     59  OG  SER A   2      -1.417   1.203  23.655  0.00  0.00    -0.380 OA
ATOM     60  H   SER A   2      -1.716   0.963  22.742  0.00  0.00    +0.211 HD
ENDBRANCH  58  59
ENDBRANCH  50  58
ENDBRANCH  46  50
ENDBRANCH  45  48
BRANCH  45  61
ATOM     61  CB  PHE A   3      -2.347   3.421  18.976  0.00  0.00    +0.055 C 
BRANCH  61  62
ATOM     62  CG  PHE A   3      -3.014   4.677  18.490  0.00  0.00    -0.020 A 
ATOM     63  CD2 PHE A   3      -4.385   4.761  18.406  0.00  0.00    -0.004 A 
ATOM     64  CE2 PHE A   3      -4.958   5.897  17.882  0.00  0.00    -0.000 A 
ATOM     65  CZ  PHE A   3      -4.171   6.930  17.463  0.00  0.00    -0.000 A 
ATOM     66  CE1 PHE A   3      -2.800   6.844  17.560  0.00  0.00    -0.000 A 
ATOM     67  CD1 PHE A   3      -2.209   5.710  18.077  0.00  0.00    -0.004 A 
ENDBRANCH  61  62
ENDBRANCH  45  61
ENDBRANCH  41  45
ENDBRANCH  40  43
BRANCH  40  68
ATOM     68  CB  THR A   4      -2.991  -2.114  19.012  0.00  0.00    +0.137 C 
ATOM     69  CG2 THR A   4      -3.910  -2.153  20.264  0.00  0.00    +0.034 C 
BRANCH  68  70
ATOM     70  OG1 THR A   4      -3.785  -1.944  17.825  0.00  0.00    -0.382 OA
ATOM     71  HG1 THR A   4      -4.433  -2.689  17.753  0.00  0.00    +0.210 HD
ENDBRANCH  68  70
ENDBRANCH  40  68
ENDBRANCH  36  40
ENDBRANCH   1  38
BRANCH   1  72
ATOM     72  CB  THR A   5      -0.419   0.235  14.725  0.00  0.00    +0.137 C 
ATOM     73  CG2 THR A   5      -1.136  -1.034  14.321  0.00  0.00    +0.034 C 
BRANCH  72  74
ATOM     74  OG1 THR A   5      -1.341   1.309  14.715  0.00  0.00    -0.382 OA
ATOM     75  HG1 THR A   5      -2.066   1.126  15.364  0.00  0.00    +0.210 HD
ENDBRANCH  72  74
ENDBRANCH   1  72
TORSDOF 28
REMARK  Name = ../refined-set-2016/1ydb/1ydb_pocket.pdb
REMARK  144 active torsions:
REMARK  status: ('A' for Active; 'I' for Inactive)
REMARK    1  A    between atoms: _1  and  _5
REMARK    2  A    between atoms: _5  and  _6
REMARK    3  A    between atoms: _5  and  _8
REMARK    4  A    between atoms: _8  and  _9
REMARK    5  A    between atoms: _19  and  _21
REMARK    6  A    between atoms: _21  and  _22
REMARK    7  A    between atoms: _21  and  _24
REMARK    8  A    between atoms: _24  and  _25
REMARK    9  A    between atoms: _30  and  _31
REMARK   10  A    between atoms: _33  and  _35
REMARK   11  A    between atoms: _35  and  _36
REMARK   12  A    between atoms: _35  and  _38
REMARK   13  A    between atoms: _38  and  _39
REMARK   14  A    between atoms: _42  and  _43
REMARK   15  A    between atoms: _48  and  _50
REMARK   16  A    between atoms: _50  and  _51
REMARK   17  A    between atoms: _50  and  _53
REMARK   18  A    between atoms: _53  and  _54
REMARK   19  A    between atoms: _59  and  _61
REMARK   20  A    between atoms: _61  and  _62
REMARK   21  A    between atoms: _61  and  _64
REMARK   22  A    between atoms: _64  and  _65
REMARK   23  A    between atoms: _70  and  _72
REMARK   24  A    between atoms: _72  and  _73
REMARK   25  A    between atoms: _76  and  _78
REMARK   26  A    between atoms: _78  and  _79
REMARK   27  A    between atoms: _78  and  _81
REMARK   28  A    between atoms: _81  and  _82
REMARK   29  A    between atoms: _87  and  _89
REMARK   30  A    between atoms: _89  and  _90
REMARK   31  A    between atoms: _89  and  _92
REMARK   32  A    between atoms: _92  and  _93
REMARK   33  A    between atoms: _96  and  _98
REMARK   34  A    between atoms: _98  and  _99
REMARK   35  A    between atoms: _98  and  _101
REMARK   36  A    between atoms: _101  and  _102
REMARK   37  A    between atoms: _102  and  _103
REMARK   38  A    between atoms: _108  and  _110
REMARK   39  A    between atoms: _110  and  _111
REMARK   40  A    between atoms: _110  and  _113
REMARK   41  A    between atoms: _113  and  _114
REMARK   42  A    between atoms: _120  and  _122
REMARK   43  A    between atoms: _133  and  _136
REMARK   44  A    between atoms: _136  and  _137
REMARK   45  A    between atoms: _145  and  _146
REMARK   46  A    between atoms: _154  and  _156
REMARK   47  A    between atoms: _156  and  _157
REMARK   48  A    between atoms: _156  and  _159
REMARK   49  A    between atoms: _159  and  _160
REMARK   50  A    between atoms: _160  and  _161
REMARK   51  A    between atoms: _164  and  _166
REMARK   52  A    between atoms: _166  and  _167
REMARK   53  A    between atoms: _166  and  _169
REMARK   54  A    between atoms: _169  and  _170
REMARK   55  A    between atoms: _175  and  _177
REMARK   56  A    between atoms: _177  and  _178
REMARK   57  A    between atoms: _177  and  _180
REMARK   58  A    between atoms: _180  and  _181
REMARK   59  A    between atoms: _181  and  _182
REMARK   60  A    between atoms: _185  and  _187
REMARK   61  A    between atoms: _187  and  _188
REMARK   62  A    between atoms: _187  and  _190
REMARK   63  A    between atoms: _190  and  _191
REMARK   64  A    between atoms: _194  and  _196
REMARK   65  A    between atoms: _196  and  _197
REMARK   66  A    between atoms: _196  and  _199
REMARK   67  A    between atoms: _199  and  _200
REMARK   68  A    between atoms: _201  and  ZN_412
REMARK   69  A    between atoms: _205  and  _207
REMARK   70  A    between atoms: _207  and  _208
REMARK   71  A    between atoms: _207  and  _210
REMARK   72  A    between atoms: _210  and  _211
REMARK   73  A    between atoms: _214  and  _216
REMARK   74  A    between atoms: _216  and  _217
REMARK   75  A    between atoms: _216  and  _219
REMARK   76  A    between atoms: _222  and  _224
REMARK   77  A    between atoms: _224  and  _225
REMARK   78  A    between atoms: _224  and  _227
REMARK   79  A    between atoms: _227  and  _228
REMARK   80  A    between atoms: _233  and  _235
REMARK   81  A    between atoms: _235  and  _236
REMARK   82  A    between atoms: _235  and  _238
REMARK   83  A    between atoms: _238  and  _239
REMARK   84  A    between atoms: _245  and  _247
REMARK   85  A    between atoms: _247  and  _248
REMARK   86  A    between atoms: _247  and  _250
REMARK   87  A    between atoms: _253  and  _255
REMARK   88  A    between atoms: _255  and  _256
REMARK   89  A    between atoms: _255  and  _258
REMARK   90  A    between atoms: _258  and  _259
REMARK   91  A    between atoms: _262  and  _264
REMARK   92  A    between atoms: _264  and  _265
REMARK   93  A    between atoms: _268  and  _270
REMARK   94  A    between atoms: _270  and  _271
REMARK   95  A    between atoms: _270  and  _273
REMARK   96  A    between atoms: _276  and  _278
REMARK   97  A    between atoms: _278  and  _279
REMARK   98  A    between atoms: _278  and  _281
REMARK   99  A    between atoms: _281  and  _282
REMARK  100  A    between atoms: _285  and  _287
REMARK  101  A    between atoms: _287  and  _288
REMARK  102  A    between atoms: _290  and  _292
REMARK  103  A    between atoms: _292  and  _293
REMARK  104  A    between atoms: _292  and  _295
REMARK  105  A    between atoms: _295  and  _296
REMARK  106  A    between atoms: _298  and  _300
REMARK  107  A    between atoms: _300  and  _301
REMARK  108  A    between atoms: _300  and  _303
REMARK  109  A    between atoms: _303  and  _304
REMARK  110  A    between atoms: _310  and  _312
REMARK  111  A    between atoms: _312  and  _313
REMARK  112  A    between atoms: _312  and  _315
REMARK  113  A    between atoms: _315  and  _316
REMARK  114  A    between atoms: _319  and  _321
REMARK  115  A    between atoms: _321  and  _322
REMARK  116  A    between atoms: _321  and  _324
REMARK  117  A    between atoms: _324  and  _325
REMARK  118  A    between atoms: _329  and  _330
REMARK  119  A    between atoms: _336  and  _337
REMARK  120  A    between atoms: _342  and  _344
REMARK  121  A    between atoms: _344  and  _345
REMARK  122  A    between atoms: _344  and  _347
REMARK  123  A    between atoms: _347  and  _348
REMARK  124  A    between atoms: _351  and  _353
REMARK  125  A    between atoms: _353  and  _354
REMARK  126  A    between atoms: _353  and  _356
REMARK  127  A    between atoms: _356  and  _357
REMARK  128  A    between atoms: _360  and  _362
REMARK  129  A    between atoms: _362  and  _363
REMARK  130  A    between atoms: _362  and  _365
REMARK  131  A    between atoms: _368  and  _370
REMARK  132  A    between atoms: _370  and  _371
REMARK  133  A    between atoms: _370  and  _373
REMARK  134  A    between atoms: _373  and  _374
REMARK  135  A    between atoms: _384  and  _386
REMARK  136  A    between atoms: _386  and  _387
REMARK  137  A    between atoms: _386  and  _389
REMARK  138  A    between atoms: _389  and  _390
REMARK  139  A    between atoms: _395  and  _397
REMARK  140  A    between atoms: _397  and  _398
REMARK  141  A    between atoms: _397  and  _400
REMARK  142  A    between atoms: _400  and  _401
REMARK  143  A    between atoms: _401  and  _402
REMARK  144  A    between atoms: _402  and  _403
REMARK                            x       y       z     vdW  Elec       q    Type
REMARK                         _______ _______ _______ _____ _____    ______ ____
ROOT
ATOM      1  CA  VAL A   1      -7.339   5.714  24.185  0.00  0.00    +0.133 C 
ENDROOT
BRANCH   1   2
ATOM      2  CB  VAL A   1      -7.018   4.498  23.238  0.00  0.00    +0.023 C 
ATOM      3  CG2 VAL A   1      -8.339   3.890  22.775  0.00  0.00    +0.002 C 
ATOM      4  CG1 VAL A   1      -6.222   4.888  22.023  0.00  0.00    +0.002 C 
ENDBRANCH   1   2
BRANCH   1   5
ATOM      5  N   VAL A   1      -6.111   6.430  24.537  0.00  0.00    -0.239 NA
ATOM      6  H   VAL A   1      -5.309   5.894  24.927  0.00  0.00    +0.142 HD
ENDBRANCH   1   5
BRANCH   1   7
ATOM      7  C   VAL A   1      -8.145   5.169  25.343  0.00  0.00    +0.224 C 
ATOM      8  O   VAL A   1      -7.599   4.488  26.209  0.00  0.00    -0.287 OA
ENDBRANCH   1   7
TORSDOF 3
REMARK  Name = ../refined-set-2016/1ydb/1ydb_pocket.pdb
REMARK  144 active torsions:
REMARK  status: ('A' for Active; 'I' for Inactive)
REMARK    1  A    between atoms: _1  and  _5
REMARK    2  A    between atoms: _5  and  _6
REMARK    3  A    between atoms: _5  and  _8
REMARK    4  A    between atoms: _8  and  _9
REMARK    5  A    between atoms: _19  and  _21
REMARK    6  A    between atoms: _21  and  _22
REMARK    7  A    between atoms: _21  and  _24
REMARK    8  A    between atoms: _24  and  _25
REMARK    9  A    between atoms: _30  and  _31
REMARK   10  A    between atoms: _33  and  _35
REMARK   11  A    between atoms: _35  and  _36
REMARK   12  A    between atoms: _35  and  _38
REMARK   13  A    between atoms: _38  and  _39
REMARK   14  A    between atoms: _42  and  _43
REMARK   15  A    between atoms: _48  and  _50
REMARK   16  A    between atoms: _50  and  _51
REMARK   17  A    between atoms: _50  and  _53
REMARK   18  A    between atoms: _53  and  _54
REMARK   19  A    between atoms: _59  and  _61
REMARK   20  A    between atoms: _61  and  _62
REMARK   21  A    between atoms: _61  and  _64
REMARK   22  A    between atoms: _64  and  _65
REMARK   23  A    between atoms: _70  and  _72
REMARK   24  A    between atoms: _72  and  _73
REMARK   25  A    between atoms: _76  and  _78
REMARK   26  A    between atoms: _78  and  _79
REMARK   27  A    between atoms: _78  and  _81
REMARK   28  A    between atoms: _81  and  _82
REMARK   29  A    between atoms: _87  and  _89
REMARK   30  A    between atoms: _89  and  _90
REMARK   31  A    between atoms: _89  and  _92
REMARK   32  A    between atoms: _92  and  _93
REMARK   33  A    between atoms: _96  and  _98
REMARK   34  A    between atoms: _98  and  _99
REMARK   35  A    between atoms: _98  and  _101
REMARK   36  A    between atoms: _101  and  _102
REMARK   37  A    between atoms: _102  and  _103
REMARK   38  A    between atoms: _108  and  _110
REMARK   39  A    between atoms: _110  and  _111
REMARK   40  A    between atoms: _110  and  _113
REMARK   41  A    between atoms: _113  and  _114
REMARK   42  A    between atoms: _120  and  _122
REMARK   43  A    between atoms: _133  and  _136
REMARK   44  A    between atoms: _136  and  _137
REMARK   45  A    between atoms: _145  and  _146
REMARK   46  A    between atoms: _154  and  _156
REMARK   47  A    between atoms: _156  and  _157
REMARK   48  A    between atoms: _156  and  _159
REMARK   49  A    between atoms: _159  and  _160
REMARK   50  A    between atoms: _160  and  _161
REMARK   51  A    between atoms: _164  and  _166
REMARK   52  A    between atoms: _166  and  _167
REMARK   53  A    between atoms: _166  and  _169
REMARK   54  A    between atoms: _169  and  _170
REMARK   55  A    between atoms: _175  and  _177
REMARK   56  A    between atoms: _177  and  _178
REMARK   57  A    between atoms: _177  and  _180
REMARK   58  A    between atoms: _180  and  _181
REMARK   59  A    between atoms: _181  and  _182
REMARK   60  A    between atoms: _185  and  _187
REMARK   61  A    between atoms: _187  and  _188
REMARK   62  A    between atoms: _187  and  _190
REMARK   63  A    between atoms: _190  and  _191
REMARK   64  A    between atoms: _194  and  _196
REMARK   65  A    between atoms: _196  and  _197
REMARK   66  A    between atoms: _196  and  _199
REMARK   67  A    between atoms: _199  and  _200
REMARK   68  A    between atoms: _201  and  ZN_412
REMARK   69  A    between atoms: _205  and  _207
REMARK   70  A    between atoms: _207  and  _208
REMARK   71  A    between atoms: _207  and  _210
REMARK   72  A    between atoms: _210  and  _211
REMARK   73  A    between atoms: _214  and  _216
REMARK   74  A    between atoms: _216  and  _217
REMARK   75  A    between atoms: _216  and  _219
REMARK   76  A    between atoms: _222  and  _224
REMARK   77  A    between atoms: _224  and  _225
REMARK   78  A    between atoms: _224  and  _227
REMARK   79  A    between atoms: _227  and  _228
REMARK   80  A    between atoms: _233  and  _235
REMARK   81  A    between atoms: _235  and  _236
REMARK   82  A    between atoms: _235  and  _238
REMARK   83  A    between atoms: _238  and  _239
REMARK   84  A    between atoms: _245  and  _247
REMARK   85  A    between atoms: _247  and  _248
REMARK   86  A    between atoms: _247  and  _250
REMARK   87  A    between atoms: _253  and  _255
REMARK   88  A    between atoms: _255  and  _256
REMARK   89  A    between atoms: _255  and  _258
REMARK   90  A    between atoms: _258  and  _259
REMARK   91  A    between atoms: _262  and  _264
REMARK   92  A    between atoms: _264  and  _265
REMARK   93  A    between atoms: _268  and  _270
REMARK   94  A    between atoms: _270  and  _271
REMARK   95  A    between atoms: _270  and  _273
REMARK   96  A    between atoms: _276  and  _278
REMARK   97  A    between atoms: _278  and  _279
REMARK   98  A    between atoms: _278  and  _281
REMARK   99  A    between atoms: _281  and  _282
REMARK  100  A    between atoms: _285  and  _287
REMARK  101  A    between atoms: _287  and  _288
REMARK  102  A    between atoms: _290  and  _292
REMARK  103  A    between atoms: _292  and  _293
REMARK  104  A    between atoms: _292  and  _295
REMARK  105  A    between atoms: _295  and  _296
REMARK  106  A    between atoms: _298  and  _300
REMARK  107  A    between atoms: _300  and  _301
REMARK  108  A    between atoms: _300  and  _303
REMARK  109  A    between atoms: _303  and  _304
REMARK  110  A    between atoms: _310  and  _312
REMARK  111  A    between atoms: _312  and  _313
REMARK  112  A    between atoms: _312  and  _315
REMARK  113  A    between atoms: _315  and  _316
REMARK  114  A    between atoms: _319  and  _321
REMARK  115  A    between atoms: _321  and  _322
REMARK  116  A    between atoms: _321  and  _324
REMARK  117  A    between atoms: _324  and  _325
REMARK  118  A    between atoms: _329  and  _330
REMARK  119  A    between atoms: _336  and  _337
REMARK  120  A    between atoms: _342  and  _344
REMARK  121  A    between atoms: _344  and  _345
REMARK  122  A    between atoms: _344  and  _347
REMARK  123  A    between atoms: _347  and  _348
REMARK  124  A    between atoms: _351  and  _353
REMARK  125  A    between atoms: _353  and  _354
REMARK  126  A    between atoms: _353  and  _356
REMARK  127  A    between atoms: _356  and  _357
REMARK  128  A    between atoms: _360  and  _362
REMARK  129  A    between atoms: _362  and  _363
REMARK  130  A    between atoms: _362  and  _365
REMARK  131  A    between atoms: _368  and  _370
REMARK  132  A    between atoms: _370  and  _371
REMARK  133  A    between atoms: _370  and  _373
REMARK  134  A    between atoms: _373  and  _374
REMARK  135  A    between atoms: _384  and  _386
REMARK  136  A    between atoms: _386  and  _387
REMARK  137  A    between atoms: _386  and  _389
REMARK  138  A    between atoms: _389  and  _390
REMARK  139  A    between atoms: _395  and  _397
REMARK  140  A    between atoms: _397  and  _398
REMARK  141  A    between atoms: _397  and  _400
REMARK  142  A    between atoms: _400  and  _401
REMARK  143  A    between atoms: _401  and  _402
REMARK  144  A    between atoms: _402  and  _403
REMARK                            x       y       z     vdW  Elec       q    Type
REMARK                         _______ _______ _______ _____ _____    ______ ____
ROOT
ATOM      1  CG  TRP A   1      -8.868   0.197  24.172  0.00  0.00    -0.002 A 
ATOM      2  CD1 TRP A   1      -7.677   0.800  24.455  0.00  0.00    +0.068 A 
ATOM      3  NE1 TRP A   1      -7.000   0.689  23.334  0.00  0.00    -0.352 N 
ATOM      4  HE1 TRP A   1      -6.034   1.049  23.193  0.00  0.00    +0.166 HD
ATOM      5  CE2 TRP A   1      -7.712   0.054  22.398  0.00  0.00    +0.056 A 
ATOM      6  CZ2 TRP A   1      -7.338  -0.257  21.093  0.00  0.00    +0.017 A 
ATOM      7  CH2 TRP A   1      -8.257  -0.917  20.311  0.00  0.00    +0.001 A 
ATOM      8  CZ3 TRP A   1      -9.514  -1.260  20.800  0.00  0.00    +0.000 A 
ATOM      9  CE3 TRP A   1      -9.878  -0.949  22.094  0.00  0.00    +0.001 A 
ATOM     10  CD2 TRP A   1      -8.952  -0.283  22.892  0.00  0.00    +0.013 A 
ENDROOT
BRANCH   1  11
ATOM     11  CB  TRP A   1      -9.942   0.057  25.217  0.00  0.00    +0.053 C 
BRANCH  11  12
ATOM     12  CA  TRP A   1     -10.943   1.187  25.106  0.00  0.00    +0.137 C 
BRANCH  12  13
ATOM     13  N   TRP A   1     -10.480   2.350  25.857  0.00  0.00    -0.239 NA
ATOM     14  H   TRP A   1      -9.910   2.225  26.718  0.00  0.00    +0.142 HD
ENDBRANCH  12  13
BRANCH  12  15
ATOM     15  C   TRP A   1     -12.275   0.715  25.646  0.00  0.00    +0.224 C 
ATOM     16  O   TRP A   1     -12.503   0.679  26.858  0.00  0.00    -0.287 OA
ENDBRANCH  12  15
ENDBRANCH  11  12
ENDBRANCH   1  11
TORSDOF 4
REMARK  Name = ../refined-set-2016/1ydb/1ydb_pocket.pdb
REMARK  144 active torsions:
REMARK  status: ('A' for Active; 'I' for Inactive)
REMARK    1  A    between atoms: _1  and  _5
REMARK    2  A    between atoms: _5  and  _6
REMARK    3  A    between atoms: _5  and  _8
REMARK    4  A    between atoms: _8  and  _9
REMARK    5  A    between atoms: _19  and  _21
REMARK    6  A    between atoms: _21  and  _22
REMARK    7  A    between atoms: _21  and  _24
REMARK    8  A    between atoms: _24  and  _25
REMARK    9  A    between atoms: _30  and  _31
REMARK   10  A    between atoms: _33  and  _35
REMARK   11  A    between atoms: _35  and  _36
REMARK   12  A    between atoms: _35  and  _38
REMARK   13  A    between atoms: _38  and  _39
REMARK   14  A    between atoms: _42  and  _43
REMARK   15  A    between atoms: _48  and  _50
REMARK   16  A    between atoms: _50  and  _51
REMARK   17  A    between atoms: _50  and  _53
REMARK   18  A    between atoms: _53  and  _54
REMARK   19  A    between atoms: _59  and  _61
REMARK   20  A    between atoms: _61  and  _62
REMARK   21  A    between atoms: _61  and  _64
REMARK   22  A    between atoms: _64  and  _65
REMARK   23  A    between atoms: _70  and  _72
REMARK   24  A    between atoms: _72  and  _73
REMARK   25  A    between atoms: _76  and  _78
REMARK   26  A    between atoms: _78  and  _79
REMARK   27  A    between atoms: _78  and  _81
REMARK   28  A    between atoms: _81  and  _82
REMARK   29  A    between atoms: _87  and  _89
REMARK   30  A    between atoms: _89  and  _90
REMARK   31  A    between atoms: _89  and  _92
REMARK   32  A    between atoms: _92  and  _93
REMARK   33  A    between atoms: _96  and  _98
REMARK   34  A    between atoms: _98  and  _99
REMARK   35  A    between atoms: _98  and  _101
REMARK   36  A    between atoms: _101  and  _102
REMARK   37  A    between atoms: _102  and  _103
REMARK   38  A    between atoms: _108  and  _110
REMARK   39  A    between atoms: _110  and  _111
REMARK   40  A    between atoms: _110  and  _113
REMARK   41  A    between atoms: _113  and  _114
REMARK   42  A    between atoms: _120  and  _122
REMARK   43  A    between atoms: _133  and  _136
REMARK   44  A    between atoms: _136  and  _137
REMARK   45  A    between atoms: _145  and  _146
REMARK   46  A    between atoms: _154  and  _156
REMARK   47  A    between atoms: _156  and  _157
REMARK   48  A    between atoms: _156  and  _159
REMARK   49  A    between atoms: _159  and  _160
REMARK   50  A    between atoms: _160  and  _161
REMARK   51  A    between atoms: _164  and  _166
REMARK   52  A    between atoms: _166  and  _167
REMARK   53  A    between atoms: _166  and  _169
REMARK   54  A    between atoms: _169  and  _170
REMARK   55  A    between atoms: _175  and  _177
REMARK   56  A    between atoms: _177  and  _178
REMARK   57  A    between atoms: _177  and  _180
REMARK   58  A    between atoms: _180  and  _181
REMARK   59  A    between atoms: _181  and  _182
REMARK   60  A    between atoms: _185  and  _187
REMARK   61  A    between atoms: _187  and  _188
REMARK   62  A    between atoms: _187  and  _190
REMARK   63  A    between atoms: _190  and  _191
REMARK   64  A    between atoms: _194  and  _196
REMARK   65  A    between atoms: _196  and  _197
REMARK   66  A    between atoms: _196  and  _199
REMARK   67  A    between atoms: _199  and  _200
REMARK   68  A    between atoms: _201  and  ZN_412
REMARK   69  A    between atoms: _205  and  _207
REMARK   70  A    between atoms: _207  and  _208
REMARK   71  A    between atoms: _207  and  _210
REMARK   72  A    between atoms: _210  and  _211
REMARK   73  A    between atoms: _214  and  _216
REMARK   74  A    between atoms: _216  and  _217
REMARK   75  A    between atoms: _216  and  _219
REMARK   76  A    between atoms: _222  and  _224
REMARK   77  A    between atoms: _224  and  _225
REMARK   78  A    between atoms: _224  and  _227
REMARK   79  A    between atoms: _227  and  _228
REMARK   80  A    between atoms: _233  and  _235
REMARK   81  A    between atoms: _235  and  _236
REMARK   82  A    between atoms: _235  and  _238
REMARK   83  A    between atoms: _238  and  _239
REMARK   84  A    between atoms: _245  and  _247
REMARK   85  A    between atoms: _247  and  _248
REMARK   86  A    between atoms: _247  and  _250
REMARK   87  A    between atoms: _253  and  _255
REMARK   88  A    between atoms: _255  and  _256
REMARK   89  A    between atoms: _255  and  _258
REMARK   90  A    between atoms: _258  and  _259
REMARK   91  A    between atoms: _262  and  _264
REMARK   92  A    between atoms: _264  and  _265
REMARK   93  A    between atoms: _268  and  _270
REMARK   94  A    between atoms: _270  and  _271
REMARK   95  A    between atoms: _270  and  _273
REMARK   96  A    between atoms: _276  and  _278
REMARK   97  A    between atoms: _278  and  _279
REMARK   98  A    between atoms: _278  and  _281
REMARK   99  A    between atoms: _281  and  _282
REMARK  100  A    between atoms: _285  and  _287
REMARK  101  A    between atoms: _287  and  _288
REMARK  102  A    between atoms: _290  and  _292
REMARK  103  A    between atoms: _292  and  _293
REMARK  104  A    between atoms: _292  and  _295
REMARK  105  A    between atoms: _295  and  _296
REMARK  106  A    between atoms: _298  and  _300
REMARK  107  A    between atoms: _300  and  _301
REMARK  108  A    between atoms: _300  and  _303
REMARK  109  A    between atoms: _303  and  _304
REMARK  110  A    between atoms: _310  and  _312
REMARK  111  A    between atoms: _312  and  _313
REMARK  112  A    between atoms: _312  and  _315
REMARK  113  A    between atoms: _315  and  _316
REMARK  114  A    between atoms: _319  and  _321
REMARK  115  A    between atoms: _321  and  _322
REMARK  116  A    between atoms: _321  and  _324
REMARK  117  A    between atoms: _324  and  _325
REMARK  118  A    between atoms: _329  and  _330
REMARK  119  A    between atoms: _336  and  _337
REMARK  120  A    between atoms: _342  and  _344
REMARK  121  A    between atoms: _344  and  _345
REMARK  122  A    between atoms: _344  and  _347
REMARK  123  A    between atoms: _347  and  _348
REMARK  124  A    between atoms: _351  and  _353
REMARK  125  A    between atoms: _353  and  _354
REMARK  126  A    between atoms: _353  and  _356
REMARK  127  A    between atoms: _356  and  _357
REMARK  128  A    between atoms: _360  and  _362
REMARK  129  A    between atoms: _362  and  _363
REMARK  130  A    between atoms: _362  and  _365
REMARK  131  A    between atoms: _368  and  _370
REMARK  132  A    between atoms: _370  and  _371
REMARK  133  A    between atoms: _370  and  _373
REMARK  134  A    between atoms: _373  and  _374
REMARK  135  A    between atoms: _384  and  _386
REMARK  136  A    between atoms: _386  and  _387
REMARK  137  A    between atoms: _386  and  _389
REMARK  138  A    between atoms: _389  and  _390
REMARK  139  A    between atoms: _395  and  _397
REMARK  140  A    between atoms: _397  and  _398
REMARK  141  A    between atoms: _397  and  _400
REMARK  142  A    between atoms: _400  and  _401
REMARK  143  A    between atoms: _401  and  _402
REMARK  144  A    between atoms: _402  and  _403
REMARK                            x       y       z     vdW  Elec       q    Type
REMARK                         _______ _______ _______ _____ _____    ______ ____
ROOT
ATOM      1  CB  ASN A   1      -2.013  -7.247  10.545  0.00  0.00    +0.110 C 
ENDROOT
BRANCH   1   2
ATOM      2  CG  ASN A   1      -3.520  -7.358  10.319  0.00  0.00    +0.221 C 
ATOM      3  OD1 ASN A   1      -4.187  -8.268  10.834  0.00  0.00    -0.275 OA
ATOM      4  ND2 ASN A   1      -4.116  -6.474   9.538  0.00  0.00    -0.329 N 
ATOM      5 HD21 ASN A   1      -5.138  -6.544   9.359  0.00  0.00    +0.145 HD
ATOM      6 HD22 ASN A   1      -3.563  -5.708   9.103  0.00  0.00    +0.145 HD
ENDBRANCH   1   2
BRANCH   1   7
ATOM      7  CA  ASN A   1      -1.453  -8.111  11.718  0.00  0.00    +0.142 C 
BRANCH   7   8
ATOM      8  N   ASN A   1      -1.894  -9.483  11.549  0.00  0.00    -0.239 NA
ATOM      9  H   ASN A   1      -2.864  -9.694  11.239  0.00  0.00    +0.142 HD
ENDBRANCH   7   8
BRANCH   7  10
ATOM     10  C   ASN A   1      -1.952  -7.653  13.090  0.00  0.00    +0.225 C 
ATOM     11  O   ASN A   1      -2.538  -6.589  13.224  0.00  0.00    -0.287 OA
ENDBRANCH   7  10
ENDBRANCH   1   7
TORSDOF 4
REMARK  Name = ../refined-set-2016/1ydb/1ydb_pocket.pdb
REMARK  144 active torsions:
REMARK  status: ('A' for Active; 'I' for Inactive)
REMARK    1  A    between atoms: _1  and  _5
REMARK    2  A    between atoms: _5  and  _6
REMARK    3  A    between atoms: _5  and  _8
REMARK    4  A    between atoms: _8  and  _9
REMARK    5  A    between atoms: _19  and  _21
REMARK    6  A    between atoms: _21  and  _22
REMARK    7  A    between atoms: _21  and  _24
REMARK    8  A    between atoms: _24  and  _25
REMARK    9  A    between atoms: _30  and  _31
REMARK   10  A    between atoms: _33  and  _35
REMARK   11  A    between atoms: _35  and  _36
REMARK   12  A    between atoms: _35  and  _38
REMARK   13  A    between atoms: _38  and  _39
REMARK   14  A    between atoms: _42  and  _43
REMARK   15  A    between atoms: _48  and  _50
REMARK   16  A    between atoms: _50  and  _51
REMARK   17  A    between atoms: _50  and  _53
REMARK   18  A    between atoms: _53  and  _54
REMARK   19  A    between atoms: _59  and  _61
REMARK   20  A    between atoms: _61  and  _62
REMARK   21  A    between atoms: _61  and  _64
REMARK   22  A    between atoms: _64  and  _65
REMARK   23  A    between atoms: _70  and  _72
REMARK   24  A    between atoms: _72  and  _73
REMARK   25  A    between atoms: _76  and  _78
REMARK   26  A    between atoms: _78  and  _79
REMARK   27  A    between atoms: _78  and  _81
REMARK   28  A    between atoms: _81  and  _82
REMARK   29  A    between atoms: _87  and  _89
REMARK   30  A    between atoms: _89  and  _90
REMARK   31  A    between atoms: _89  and  _92
REMARK   32  A    between atoms: _92  and  _93
REMARK   33  A    between atoms: _96  and  _98
REMARK   34  A    between atoms: _98  and  _99
REMARK   35  A    between atoms: _98  and  _101
REMARK   36  A    between atoms: _101  and  _102
REMARK   37  A    between atoms: _102  and  _103
REMARK   38  A    between atoms: _108  and  _110
REMARK   39  A    between atoms: _110  and  _111
REMARK   40  A    between atoms: _110  and  _113
REMARK   41  A    between atoms: _113  and  _114
REMARK   42  A    between atoms: _120  and  _122
REMARK   43  A    between atoms: _133  and  _136
REMARK   44  A    between atoms: _136  and  _137
REMARK   45  A    between atoms: _145  and  _146
REMARK   46  A    between atoms: _154  and  _156
REMARK   47  A    between atoms: _156  and  _157
REMARK   48  A    between atoms: _156  and  _159
REMARK   49  A    between atoms: _159  and  _160
REMARK   50  A    between atoms: _160  and  _161
REMARK   51  A    between atoms: _164  and  _166
REMARK   52  A    between atoms: _166  and  _167
REMARK   53  A    between atoms: _166  and  _169
REMARK   54  A    between atoms: _169  and  _170
REMARK   55  A    between atoms: _175  and  _177
REMARK   56  A    between atoms: _177  and  _178
REMARK   57  A    between atoms: _177  and  _180
REMARK   58  A    between atoms: _180  and  _181
REMARK   59  A    between atoms: _181  and  _182
REMARK   60  A    between atoms: _185  and  _187
REMARK   61  A    between atoms: _187  and  _188
REMARK   62  A    between atoms: _187  and  _190
REMARK   63  A    between atoms: _190  and  _191
REMARK   64  A    between atoms: _194  and  _196
REMARK   65  A    between atoms: _196  and  _197
REMARK   66  A    between atoms: _196  and  _199
REMARK   67  A    between atoms: _199  and  _200
REMARK   68  A    between atoms: _201  and  ZN_412
REMARK   69  A    between atoms: _205  and  _207
REMARK   70  A    between atoms: _207  and  _208
REMARK   71  A    between atoms: _207  and  _210
REMARK   72  A    between atoms: _210  and  _211
REMARK   73  A    between atoms: _214  and  _216
REMARK   74  A    between atoms: _216  and  _217
REMARK   75  A    between atoms: _216  and  _219
REMARK   76  A    between atoms: _222  and  _224
REMARK   77  A    between atoms: _224  and  _225
REMARK   78  A    between atoms: _224  and  _227
REMARK   79  A    between atoms: _227  and  _228
REMARK   80  A    between atoms: _233  and  _235
REMARK   81  A    between atoms: _235  and  _236
REMARK   82  A    between atoms: _235  and  _238
REMARK   83  A    between atoms: _238  and  _239
REMARK   84  A    between atoms: _245  and  _247
REMARK   85  A    between atoms: _247  and  _248
REMARK   86  A    between atoms: _247  and  _250
REMARK   87  A    between atoms: _253  and  _255
REMARK   88  A    between atoms: _255  and  _256
REMARK   89  A    between atoms: _255  and  _258
REMARK   90  A    between atoms: _258  and  _259
REMARK   91  A    between atoms: _262  and  _264
REMARK   92  A    between atoms: _264  and  _265
REMARK   93  A    between atoms: _268  and  _270
REMARK   94  A    between atoms: _270  and  _271
REMARK   95  A    between atoms: _270  and  _273
REMARK   96  A    between atoms: _276  and  _278
REMARK   97  A    between atoms: _278  and  _279
REMARK   98  A    between atoms: _278  and  _281
REMARK   99  A    between atoms: _281  and  _282
REMARK  100  A    between atoms: _285  and  _287
REMARK  101  A    between atoms: _287  and  _288
REMARK  102  A    between atoms: _290  and  _292
REMARK  103  A    between atoms: _292  and  _293
REMARK  104  A    between atoms: _292  and  _295
REMARK  105  A    between atoms: _295  and  _296
REMARK  106  A    between atoms: _298  and  _300
REMARK  107  A    between atoms: _300  and  _301
REMARK  108  A    between atoms: _300  and  _303
REMARK  109  A    between atoms: _303  and  _304
REMARK  110  A    between atoms: _310  and  _312
REMARK  111  A    between atoms: _312  and  _313
REMARK  112  A    between atoms: _312  and  _315
REMARK  113  A    between atoms: _315  and  _316
REMARK  114  A    between atoms: _319  and  _321
REMARK  115  A    between atoms: _321  and  _322
REMARK  116  A    between atoms: _321  and  _324
REMARK  117  A    between atoms: _324  and  _325
REMARK  118  A    between atoms: _329  and  _330
REMARK  119  A    between atoms: _336  and  _337
REMARK  120  A    between atoms: _342  and  _344
REMARK  121  A    between atoms: _344  and  _345
REMARK  122  A    between atoms: _344  and  _347
REMARK  123  A    between atoms: _347  and  _348
REMARK  124  A    between atoms: _351  and  _353
REMARK  125  A    between atoms: _353  and  _354
REMARK  126  A    between atoms: _353  and  _356
REMARK  127  A    between atoms: _356  and  _357
REMARK  128  A    between atoms: _360  and  _362
REMARK  129  A    between atoms: _362  and  _363
REMARK  130  A    between atoms: _362  and  _365
REMARK  131  A    between atoms: _368  and  _370
REMARK  132  A    between atoms: _370  and  _371
REMARK  133  A    between atoms: _370  and  _373
REMARK  134  A    between atoms: _373  and  _374
REMARK  135  A    between atoms: _384  and  _386
REMARK  136  A    between atoms: _386  and  _387
REMARK  137  A    between atoms: _386  and  _389
REMARK  138  A    between atoms: _389  and  _390
REMARK  139  A    between atoms: _395  and  _397
REMARK  140  A    between atoms: _397  and  _398
REMARK  141  A    between atoms: _397  and  _400
REMARK  142  A    between atoms: _400  and  _401
REMARK  143  A    between atoms: _401  and  _402
REMARK  144  A    between atoms: _402  and  _403
REMARK                            x       y       z     vdW  Elec       q    Type
REMARK                         _______ _______ _______ _____ _____    ______ ____
ROOT
ATOM      1  NE  ARG A   1       2.199  -3.610  21.219  0.00  0.00    -0.265 N 
ATOM      2  CZ  ARG A   1       2.312  -2.617  22.089  0.00  0.00    +0.342 C 
ATOM      3  NH2 ARG A   1       3.537  -2.325  22.530  0.00  0.00    -0.292 N 
ATOM      4 HH21 ARG A   1       3.673  -1.553  23.214  0.00  0.00    +0.255 HD
ATOM      5 HH22 ARG A   1       4.355  -2.869  22.190  0.00  0.00    +0.255 HD
ATOM      6  NH1 ARG A   1       1.238  -1.937  22.491  0.00  0.00    -0.292 N 
ATOM      7 HH11 ARG A   1       1.340  -1.160  23.174  0.00  0.00    +0.255 HD
ATOM      8 HH12 ARG A   1       0.298  -2.184  22.121  0.00  0.00    +0.255 HD
ATOM      9  HE  ARG A   1       3.059  -4.116  20.925  0.00  0.00    +0.259 HD
ENDROOT
BRANCH   1  10
ATOM     10  CD  ARG A   1       0.923  -4.022  20.658  0.00  0.00    +0.174 C 
BRANCH  10  11
ATOM     11  CG  ARG A   1       1.106  -5.390  20.028  0.00  0.00    +0.045 C 
BRANCH  11  12
ATOM     12  CB  ARG A   1      -0.054  -5.637  19.080  0.00  0.00    +0.029 C 
BRANCH  12  13
ATOM     13  CA  ARG A   1      -0.079  -7.072  18.524  0.00  0.00    +0.133 C 
BRANCH  13  14
ATOM     14  N   ARG A   1      -1.085  -7.223  17.482  0.00  0.00    -0.239 NA
ATOM     15  H   ARG A   1      -1.960  -6.665  17.553  0.00  0.00    +0.142 HD
ENDBRANCH  13  14
BRANCH  13  16
ATOM     16  C   ARG A   1      -0.505  -8.023  19.660  0.00  0.00    +0.224 C 
ATOM     17  O   ARG A   1      -1.698  -8.130  19.986  0.00  0.00    -0.287 OA
ENDBRANCH  13  16
ENDBRANCH  12  13
ENDBRANCH  11  12
ENDBRANCH  10  11
ENDBRANCH   1  10
TORSDOF 6
REMARK  Name = ../refined-set-2016/1ydb/1ydb_pocket.pdb
REMARK  144 active torsions:
REMARK  status: ('A' for Active; 'I' for Inactive)
REMARK    1  A    between atoms: _1  and  _5
REMARK    2  A    between atoms: _5  and  _6
REMARK    3  A    between atoms: _5  and  _8
REMARK    4  A    between atoms: _8  and  _9
REMARK    5  A    between atoms: _19  and  _21
REMARK    6  A    between atoms: _21  and  _22
REMARK    7  A    between atoms: _21  and  _24
REMARK    8  A    between atoms: _24  and  _25
REMARK    9  A    between atoms: _30  and  _31
REMARK   10  A    between atoms: _33  and  _35
REMARK   11  A    between atoms: _35  and  _36
REMARK   12  A    between atoms: _35  and  _38
REMARK   13  A    between atoms: _38  and  _39
REMARK   14  A    between atoms: _42  and  _43
REMARK   15  A    between atoms: _48  and  _50
REMARK   16  A    between atoms: _50  and  _51
REMARK   17  A    between atoms: _50  and  _53
REMARK   18  A    between atoms: _53  and  _54
REMARK   19  A    between atoms: _59  and  _61
REMARK   20  A    between atoms: _61  and  _62
REMARK   21  A    between atoms: _61  and  _64
REMARK   22  A    between atoms: _64  and  _65
REMARK   23  A    between atoms: _70  and  _72
REMARK   24  A    between atoms: _72  and  _73
REMARK   25  A    between atoms: _76  and  _78
REMARK   26  A    between atoms: _78  and  _79
REMARK   27  A    between atoms: _78  and  _81
REMARK   28  A    between atoms: _81  and  _82
REMARK   29  A    between atoms: _87  and  _89
REMARK   30  A    between atoms: _89  and  _90
REMARK   31  A    between atoms: _89  and  _92
REMARK   32  A    between atoms: _92  and  _93
REMARK   33  A    between atoms: _96  and  _98
REMARK   34  A    between atoms: _98  and  _99
REMARK   35  A    between atoms: _98  and  _101
REMARK   36  A    between atoms: _101  and  _102
REMARK   37  A    between atoms: _102  and  _103
REMARK   38  A    between atoms: _108  and  _110
REMARK   39  A    between atoms: _110  and  _111
REMARK   40  A    between atoms: _110  and  _113
REMARK   41  A    between atoms: _113  and  _114
REMARK   42  A    between atoms: _120  and  _122
REMARK   43  A    between atoms: _133  and  _136
REMARK   44  A    between atoms: _136  and  _137
REMARK   45  A    between atoms: _145  and  _146
REMARK   46  A    between atoms: _154  and  _156
REMARK   47  A    between atoms: _156  and  _157
REMARK   48  A    between atoms: _156  and  _159
REMARK   49  A    between atoms: _159  and  _160
REMARK   50  A    between atoms: _160  and  _161
REMARK   51  A    between atoms: _164  and  _166
REMARK   52  A    between atoms: _166  and  _167
REMARK   53  A    between atoms: _166  and  _169
REMARK   54  A    between atoms: _169  and  _170
REMARK   55  A    between atoms: _175  and  _177
REMARK   56  A    between atoms: _177  and  _178
REMARK   57  A    between atoms: _177  and  _180
REMARK   58  A    between atoms: _180  and  _181
REMARK   59  A    between atoms: _181  and  _182
REMARK   60  A    between atoms: _185  and  _187
REMARK   61  A    between atoms: _187  and  _188
REMARK   62  A    between atoms: _187  and  _190
REMARK   63  A    between atoms: _190  and  _191
REMARK   64  A    between atoms: _194  and  _196
REMARK   65  A    between atoms: _196  and  _197
REMARK   66  A    between atoms: _196  and  _199
REMARK   67  A    between atoms: _199  and  _200
REMARK   68  A    between atoms: _201  and  ZN_412
REMARK   69  A    between atoms: _205  and  _207
REMARK   70  A    between atoms: _207  and  _208
REMARK   71  A    between atoms: _207  and  _210
REMARK   72  A    between atoms: _210  and  _211
REMARK   73  A    between atoms: _214  and  _216
REMARK   74  A    between atoms: _216  and  _217
REMARK   75  A    between atoms: _216  and  _219
REMARK   76  A    between atoms: _222  and  _224
REMARK   77  A    between atoms: _224  and  _225
REMARK   78  A    between atoms: _224  and  _227
REMARK   79  A    between atoms: _227  and  _228
REMARK   80  A    between atoms: _233  and  _235
REMARK   81  A    between atoms: _235  and  _236
REMARK   82  A    between atoms: _235  and  _238
REMARK   83  A    between atoms: _238  and  _239
REMARK   84  A    between atoms: _245  and  _247
REMARK   85  A    between atoms: _247  and  _248
REMARK   86  A    between atoms: _247  and  _250
REMARK   87  A    between atoms: _253  and  _255
REMARK   88  A    between atoms: _255  and  _256
REMARK   89  A    between atoms: _255  and  _258
REMARK   90  A    between atoms: _258  and  _259
REMARK   91  A    between atoms: _262  and  _264
REMARK   92  A    between atoms: _264  and  _265
REMARK   93  A    between atoms: _268  and  _270
REMARK   94  A    between atoms: _270  and  _271
REMARK   95  A    between atoms: _270  and  _273
REMARK   96  A    between atoms: _276  and  _278
REMARK   97  A    between atoms: _278  and  _279
REMARK   98  A    between atoms: _278  and  _281
REMARK   99  A    between atoms: _281  and  _282
REMARK  100  A    between atoms: _285  and  _287
REMARK  101  A    between atoms: _287  and  _288
REMARK  102  A    between atoms: _290  and  _292
REMARK  103  A    between atoms: _292  and  _293
REMARK  104  A    between atoms: _292  and  _295
REMARK  105  A    between atoms: _295  and  _296
REMARK  106  A    between atoms: _298  and  _300
REMARK  107  A    between atoms: _300  and  _301
REMARK  108  A    between atoms: _300  and  _303
REMARK  109  A    between atoms: _303  and  _304
REMARK  110  A    between atoms: _310  and  _312
REMARK  111  A    between atoms: _312  and  _313
REMARK  112  A    between atoms: _312  and  _315
REMARK  113  A    between atoms: _315  and  _316
REMARK  114  A    between atoms: _319  and  _321
REMARK  115  A    between atoms: _321  and  _322
REMARK  116  A    between atoms: _321  and  _324
REMARK  117  A    between atoms: _324  and  _325
REMARK  118  A    between atoms: _329  and  _330
REMARK  119  A    between atoms: _336  and  _337
REMARK  120  A    between atoms: _342  and  _344
REMARK  121  A    between atoms: _344  and  _345
REMARK  122  A    between atoms: _344  and  _347
REMARK  123  A    between atoms: _347  and  _348
REMARK  124  A    between atoms: _351  and  _353
REMARK  125  A    between atoms: _353  and  _354
REMARK  126  A    between atoms: _353  and  _356
REMARK  127  A    between atoms: _356  and  _357
REMARK  128  A    between atoms: _360  and  _362
REMARK  129  A    between atoms: _362  and  _363
REMARK  130  A    between atoms: _362  and  _365
REMARK  131  A    between atoms: _368  and  _370
REMARK  132  A    between atoms: _370  and  _371
REMARK  133  A    between atoms: _370  and  _373
REMARK  134  A    between atoms: _373  and  _374
REMARK  135  A    between atoms: _384  and  _386
REMARK  136  A    between atoms: _386  and  _387
REMARK  137  A    between atoms: _386  and  _389
REMARK  138  A    between atoms: _389  and  _390
REMARK  139  A    between atoms: _395  and  _397
REMARK  140  A    between atoms: _397  and  _398
REMARK  141  A    between atoms: _397  and  _400
REMARK  142  A    between atoms: _400  and  _401
REMARK  143  A    between atoms: _401  and  _402
REMARK  144  A    between atoms: _402  and  _403
REMARK                            x       y       z     vdW  Elec       q    Type
REMARK                         _______ _______ _______ _____ _____    ______ ____
ROOT
ATOM      1  O   HOH     1      -1.387  -4.038  15.886  0.00  0.00    +0.000 OA
ENDROOT
TORSDOF 0
REMARK  Name = ../refined-set-2016/1ydb/1ydb_pocket.pdb
REMARK  144 active torsions:
REMARK  status: ('A' for Active; 'I' for Inactive)
REMARK    1  A    between atoms: _1  and  _5
REMARK    2  A    between atoms: _5  and  _6
REMARK    3  A    between atoms: _5  and  _8
REMARK    4  A    between atoms: _8  and  _9
REMARK    5  A    between atoms: _19  and  _21
REMARK    6  A    between atoms: _21  and  _22
REMARK    7  A    between atoms: _21  and  _24
REMARK    8  A    between atoms: _24  and  _25
REMARK    9  A    between atoms: _30  and  _31
REMARK   10  A    between atoms: _33  and  _35
REMARK   11  A    between atoms: _35  and  _36
REMARK   12  A    between atoms: _35  and  _38
REMARK   13  A    between atoms: _38  and  _39
REMARK   14  A    between atoms: _42  and  _43
REMARK   15  A    between atoms: _48  and  _50
REMARK   16  A    between atoms: _50  and  _51
REMARK   17  A    between atoms: _50  and  _53
REMARK   18  A    between atoms: _53  and  _54
REMARK   19  A    between atoms: _59  and  _61
REMARK   20  A    between atoms: _61  and  _62
REMARK   21  A    between atoms: _61  and  _64
REMARK   22  A    between atoms: _64  and  _65
REMARK   23  A    between atoms: _70  and  _72
REMARK   24  A    between atoms: _72  and  _73
REMARK   25  A    between atoms: _76  and  _78
REMARK   26  A    between atoms: _78  and  _79
REMARK   27  A    between atoms: _78  and  _81
REMARK   28  A    between atoms: _81  and  _82
REMARK   29  A    between atoms: _87  and  _89
REMARK   30  A    between atoms: _89  and  _90
REMARK   31  A    between atoms: _89  and  _92
REMARK   32  A    between atoms: _92  and  _93
REMARK   33  A    between atoms: _96  and  _98
REMARK   34  A    between atoms: _98  and  _99
REMARK   35  A    between atoms: _98  and  _101
REMARK   36  A    between atoms: _101  and  _102
REMARK   37  A    between atoms: _102  and  _103
REMARK   38  A    between atoms: _108  and  _110
REMARK   39  A    between atoms: _110  and  _111
REMARK   40  A    between atoms: _110  and  _113
REMARK   41  A    between atoms: _113  and  _114
REMARK   42  A    between atoms: _120  and  _122
REMARK   43  A    between atoms: _133  and  _136
REMARK   44  A    between atoms: _136  and  _137
REMARK   45  A    between atoms: _145  and  _146
REMARK   46  A    between atoms: _154  and  _156
REMARK   47  A    between atoms: _156  and  _157
REMARK   48  A    between atoms: _156  and  _159
REMARK   49  A    between atoms: _159  and  _160
REMARK   50  A    between atoms: _160  and  _161
REMARK   51  A    between atoms: _164  and  _166
REMARK   52  A    between atoms: _166  and  _167
REMARK   53  A    between atoms: _166  and  _169
REMARK   54  A    between atoms: _169  and  _170
REMARK   55  A    between atoms: _175  and  _177
REMARK   56  A    between atoms: _177  and  _178
REMARK   57  A    between atoms: _177  and  _180
REMARK   58  A    between atoms: _180  and  _181
REMARK   59  A    between atoms: _181  and  _182
REMARK   60  A    between atoms: _185  and  _187
REMARK   61  A    between atoms: _187  and  _188
REMARK   62  A    between atoms: _187  and  _190
REMARK   63  A    between atoms: _190  and  _191
REMARK   64  A    between atoms: _194  and  _196
REMARK   65  A    between atoms: _196  and  _197
REMARK   66  A    between atoms: _196  and  _199
REMARK   67  A    between atoms: _199  and  _200
REMARK   68  A    between atoms: _201  and  ZN_412
REMARK   69  A    between atoms: _205  and  _207
REMARK   70  A    between atoms: _207  and  _208
REMARK   71  A    between atoms: _207  and  _210
REMARK   72  A    between atoms: _210  and  _211
REMARK   73  A    between atoms: _214  and  _216
REMARK   74  A    between atoms: _216  and  _217
REMARK   75  A    between atoms: _216  and  _219
REMARK   76  A    between atoms: _222  and  _224
REMARK   77  A    between atoms: _224  and  _225
REMARK   78  A    between atoms: _224  and  _227
REMARK   79  A    between atoms: _227  and  _228
REMARK   80  A    between atoms: _233  and  _235
REMARK   81  A    between atoms: _235  and  _236
REMARK   82  A    between atoms: _235  and  _238
REMARK   83  A    between atoms: _238  and  _239
REMARK   84  A    between atoms: _245  and  _247
REMARK   85  A    between atoms: _247  and  _248
REMARK   86  A    between atoms: _247  and  _250
REMARK   87  A    between atoms: _253  and  _255
REMARK   88  A    between atoms: _255  and  _256
REMARK   89  A    between atoms: _255  and  _258
REMARK   90  A    between atoms: _258  and  _259
REMARK   91  A    between atoms: _262  and  _264
REMARK   92  A    between atoms: _264  and  _265
REMARK   93  A    between atoms: _268  and  _270
REMARK   94  A    between atoms: _270  and  _271
REMARK   95  A    between atoms: _270  and  _273
REMARK   96  A    between atoms: _276  and  _278
REMARK   97  A    between atoms: _278  and  _279
REMARK   98  A    between atoms: _278  and  _281
REMARK   99  A    between atoms: _281  and  _282
REMARK  100  A    between atoms: _285  and  _287
REMARK  101  A    between atoms: _287  and  _288
REMARK  102  A    between atoms: _290  and  _292
REMARK  103  A    between atoms: _292  and  _293
REMARK  104  A    between atoms: _292  and  _295
REMARK  105  A    between atoms: _295  and  _296
REMARK  106  A    between atoms: _298  and  _300
REMARK  107  A    between atoms: _300  and  _301
REMARK  108  A    between atoms: _300  and  _303
REMARK  109  A    between atoms: _303  and  _304
REMARK  110  A    between atoms: _310  and  _312
REMARK  111  A    between atoms: _312  and  _313
REMARK  112  A    between atoms: _312  and  _315
REMARK  113  A    between atoms: _315  and  _316
REMARK  114  A    between atoms: _319  and  _321
REMARK  115  A    between atoms: _321  and  _322
REMARK  116  A    between atoms: _321  and  _324
REMARK  117  A    between atoms: _324  and  _325
REMARK  118  A    between atoms: _329  and  _330
REMARK  119  A    between atoms: _336  and  _337
REMARK  120  A    between atoms: _342  and  _344
REMARK  121  A    between atoms: _344  and  _345
REMARK  122  A    between atoms: _344  and  _347
REMARK  123  A    between atoms: _347  and  _348
REMARK  124  A    between atoms: _351  and  _353
REMARK  125  A    between atoms: _353  and  _354
REMARK  126  A    between atoms: _353  and  _356
REMARK  127  A    between atoms: _356  and  _357
REMARK  128  A    between atoms: _360  and  _362
REMARK  129  A    between atoms: _362  and  _363
REMARK  130  A    between atoms: _362  and  _365
REMARK  131  A    between atoms: _368  and  _370
REMARK  132  A    between atoms: _370  and  _371
REMARK  133  A    between atoms: _370  and  _373
REMARK  134  A    between atoms: _373  and  _374
REMARK  135  A    between atoms: _384  and  _386
REMARK  136  A    between atoms: _386  and  _387
REMARK  137  A    between atoms: _386  and  _389
REMARK  138  A    between atoms: _389  and  _390
REMARK  139  A    between atoms: _395  and  _397
REMARK  140  A    between atoms: _397  and  _398
REMARK  141  A    between atoms: _397  and  _400
REMARK  142  A    between atoms: _400  and  _401
REMARK  143  A    between atoms: _401  and  _402
REMARK  144  A    between atoms: _402  and  _403
REMARK                            x       y       z     vdW  Elec       q    Type
REMARK                         _______ _______ _______ _____ _____    ______ ____
ROOT
ATOM      1  O   HOH     1      -7.351   6.063   7.268  0.00  0.00    +0.000 OA
ENDROOT
TORSDOF 0
REMARK  Name = ../refined-set-2016/1ydb/1ydb_pocket.pdb
REMARK  144 active torsions:
REMARK  status: ('A' for Active; 'I' for Inactive)
REMARK    1  A    between atoms: _1  and  _5
REMARK    2  A    between atoms: _5  and  _6
REMARK    3  A    between atoms: _5  and  _8
REMARK    4  A    between atoms: _8  and  _9
REMARK    5  A    between atoms: _19  and  _21
REMARK    6  A    between atoms: _21  and  _22
REMARK    7  A    between atoms: _21  and  _24
REMARK    8  A    between atoms: _24  and  _25
REMARK    9  A    between atoms: _30  and  _31
REMARK   10  A    between atoms: _33  and  _35
REMARK   11  A    between atoms: _35  and  _36
REMARK   12  A    between atoms: _35  and  _38
REMARK   13  A    between atoms: _38  and  _39
REMARK   14  A    between atoms: _42  and  _43
REMARK   15  A    between atoms: _48  and  _50
REMARK   16  A    between atoms: _50  and  _51
REMARK   17  A    between atoms: _50  and  _53
REMARK   18  A    between atoms: _53  and  _54
REMARK   19  A    between atoms: _59  and  _61
REMARK   20  A    between atoms: _61  and  _62
REMARK   21  A    between atoms: _61  and  _64
REMARK   22  A    between atoms: _64  and  _65
REMARK   23  A    between atoms: _70  and  _72
REMARK   24  A    between atoms: _72  and  _73
REMARK   25  A    between atoms: _76  and  _78
REMARK   26  A    between atoms: _78  and  _79
REMARK   27  A    between atoms: _78  and  _81
REMARK   28  A    between atoms: _81  and  _82
REMARK   29  A    between atoms: _87  and  _89
REMARK   30  A    between atoms: _89  and  _90
REMARK   31  A    between atoms: _89  and  _92
REMARK   32  A    between atoms: _92  and  _93
REMARK   33  A    between atoms: _96  and  _98
REMARK   34  A    between atoms: _98  and  _99
REMARK   35  A    between atoms: _98  and  _101
REMARK   36  A    between atoms: _101  and  _102
REMARK   37  A    between atoms: _102  and  _103
REMARK   38  A    between atoms: _108  and  _110
REMARK   39  A    between atoms: _110  and  _111
REMARK   40  A    between atoms: _110  and  _113
REMARK   41  A    between atoms: _113  and  _114
REMARK   42  A    between atoms: _120  and  _122
REMARK   43  A    between atoms: _133  and  _136
REMARK   44  A    between atoms: _136  and  _137
REMARK   45  A    between atoms: _145  and  _146
REMARK   46  A    between atoms: _154  and  _156
REMARK   47  A    between atoms: _156  and  _157
REMARK   48  A    between atoms: _156  and  _159
REMARK   49  A    between atoms: _159  and  _160
REMARK   50  A    between atoms: _160  and  _161
REMARK   51  A    between atoms: _164  and  _166
REMARK   52  A    between atoms: _166  and  _167
REMARK   53  A    between atoms: _166  and  _169
REMARK   54  A    between atoms: _169  and  _170
REMARK   55  A    between atoms: _175  and  _177
REMARK   56  A    between atoms: _177  and  _178
REMARK   57  A    between atoms: _177  and  _180
REMARK   58  A    between atoms: _180  and  _181
REMARK   59  A    between atoms: _181  and  _182
REMARK   60  A    between atoms: _185  and  _187
REMARK   61  A    between atoms: _187  and  _188
REMARK   62  A    between atoms: _187  and  _190
REMARK   63  A    between atoms: _190  and  _191
REMARK   64  A    between atoms: _194  and  _196
REMARK   65  A    between atoms: _196  and  _197
REMARK   66  A    between atoms: _196  and  _199
REMARK   67  A    between atoms: _199  and  _200
REMARK   68  A    between atoms: _201  and  ZN_412
REMARK   69  A    between atoms: _205  and  _207
REMARK   70  A    between atoms: _207  and  _208
REMARK   71  A    between atoms: _207  and  _210
REMARK   72  A    between atoms: _210  and  _211
REMARK   73  A    between atoms: _214  and  _216
REMARK   74  A    between atoms: _216  and  _217
REMARK   75  A    between atoms: _216  and  _219
REMARK   76  A    between atoms: _222  and  _224
REMARK   77  A    between atoms: _224  and  _225
REMARK   78  A    between atoms: _224  and  _227
REMARK   79  A    between atoms: _227  and  _228
REMARK   80  A    between atoms: _233  and  _235
REMARK   81  A    between atoms: _235  and  _236
REMARK   82  A    between atoms: _235  and  _238
REMARK   83  A    between atoms: _238  and  _239
REMARK   84  A    between atoms: _245  and  _247
REMARK   85  A    between atoms: _247  and  _248
REMARK   86  A    between atoms: _247  and  _250
REMARK   87  A    between atoms: _253  and  _255
REMARK   88  A    between atoms: _255  and  _256
REMARK   89  A    between atoms: _255  and  _258
REMARK   90  A    between atoms: _258  and  _259
REMARK   91  A    between atoms: _262  and  _264
REMARK   92  A    between atoms: _264  and  _265
REMARK   93  A    between atoms: _268  and  _270
REMARK   94  A    between atoms: _270  and  _271
REMARK   95  A    between atoms: _270  and  _273
REMARK   96  A    between atoms: _276  and  _278
REMARK   97  A    between atoms: _278  and  _279
REMARK   98  A    between atoms: _278  and  _281
REMARK   99  A    between atoms: _281  and  _282
REMARK  100  A    between atoms: _285  and  _287
REMARK  101  A    between atoms: _287  and  _288
REMARK  102  A    between atoms: _290  and  _292
REMARK  103  A    between atoms: _292  and  _293
REMARK  104  A    between atoms: _292  and  _295
REMARK  105  A    between atoms: _295  and  _296
REMARK  106  A    between atoms: _298  and  _300
REMARK  107  A    between atoms: _300  and  _301
REMARK  108  A    between atoms: _300  and  _303
REMARK  109  A    between atoms: _303  and  _304
REMARK  110  A    between atoms: _310  and  _312
REMARK  111  A    between atoms: _312  and  _313
REMARK  112  A    between atoms: _312  and  _315
REMARK  113  A    between atoms: _315  and  _316
REMARK  114  A    between atoms: _319  and  _321
REMARK  115  A    between atoms: _321  and  _322
REMARK  116  A    between atoms: _321  and  _324
REMARK  117  A    between atoms: _324  and  _325
REMARK  118  A    between atoms: _329  and  _330
REMARK  119  A    between atoms: _336  and  _337
REMARK  120  A    between atoms: _342  and  _344
REMARK  121  A    between atoms: _344  and  _345
REMARK  122  A    between atoms: _344  and  _347
REMARK  123  A    between atoms: _347  and  _348
REMARK  124  A    between atoms: _351  and  _353
REMARK  125  A    between atoms: _353  and  _354
REMARK  126  A    between atoms: _353  and  _356
REMARK  127  A    between atoms: _356  and  _357
REMARK  128  A    between atoms: _360  and  _362
REMARK  129  A    between atoms: _362  and  _363
REMARK  130  A    between atoms: _362  and  _365
REMARK  131  A    between atoms: _368  and  _370
REMARK  132  A    between atoms: _370  and  _371
REMARK  133  A    between atoms: _370  and  _373
REMARK  134  A    between atoms: _373  and  _374
REMARK  135  A    between atoms: _384  and  _386
REMARK  136  A    between atoms: _386  and  _387
REMARK  137  A    between atoms: _386  and  _389
REMARK  138  A    between atoms: _389  and  _390
REMARK  139  A    between atoms: _395  and  _397
REMARK  140  A    between atoms: _397  and  _398
REMARK  141  A    between atoms: _397  and  _400
REMARK  142  A    between atoms: _400  and  _401
REMARK  143  A    between atoms: _401  and  _402
REMARK  144  A    between atoms: _402  and  _403
REMARK                            x       y       z     vdW  Elec       q    Type
REMARK                         _______ _______ _______ _____ _____    ______ ____
ROOT
ATOM      1  O   HOH     1      -2.530  -3.034  11.700  0.00  0.00    +0.000 OA
ENDROOT
TORSDOF 0
REMARK  Name = ../refined-set-2016/1ydb/1ydb_pocket.pdb
REMARK  144 active torsions:
REMARK  status: ('A' for Active; 'I' for Inactive)
REMARK    1  A    between atoms: _1  and  _5
REMARK    2  A    between atoms: _5  and  _6
REMARK    3  A    between atoms: _5  and  _8
REMARK    4  A    between atoms: _8  and  _9
REMARK    5  A    between atoms: _19  and  _21
REMARK    6  A    between atoms: _21  and  _22
REMARK    7  A    between atoms: _21  and  _24
REMARK    8  A    between atoms: _24  and  _25
REMARK    9  A    between atoms: _30  and  _31
REMARK   10  A    between atoms: _33  and  _35
REMARK   11  A    between atoms: _35  and  _36
REMARK   12  A    between atoms: _35  and  _38
REMARK   13  A    between atoms: _38  and  _39
REMARK   14  A    between atoms: _42  and  _43
REMARK   15  A    between atoms: _48  and  _50
REMARK   16  A    between atoms: _50  and  _51
REMARK   17  A    between atoms: _50  and  _53
REMARK   18  A    between atoms: _53  and  _54
REMARK   19  A    between atoms: _59  and  _61
REMARK   20  A    between atoms: _61  and  _62
REMARK   21  A    between atoms: _61  and  _64
REMARK   22  A    between atoms: _64  and  _65
REMARK   23  A    between atoms: _70  and  _72
REMARK   24  A    between atoms: _72  and  _73
REMARK   25  A    between atoms: _76  and  _78
REMARK   26  A    between atoms: _78  and  _79
REMARK   27  A    between atoms: _78  and  _81
REMARK   28  A    between atoms: _81  and  _82
REMARK   29  A    between atoms: _87  and  _89
REMARK   30  A    between atoms: _89  and  _90
REMARK   31  A    between atoms: _89  and  _92
REMARK   32  A    between atoms: _92  and  _93
REMARK   33  A    between atoms: _96  and  _98
REMARK   34  A    between atoms: _98  and  _99
REMARK   35  A    between atoms: _98  and  _101
REMARK   36  A    between atoms: _101  and  _102
REMARK   37  A    between atoms: _102  and  _103
REMARK   38  A    between atoms: _108  and  _110
REMARK   39  A    between atoms: _110  and  _111
REMARK   40  A    between atoms: _110  and  _113
REMARK   41  A    between atoms: _113  and  _114
REMARK   42  A    between atoms: _120  and  _122
REMARK   43  A    between atoms: _133  and  _136
REMARK   44  A    between atoms: _136  and  _137
REMARK   45  A    between atoms: _145  and  _146
REMARK   46  A    between atoms: _154  and  _156
REMARK   47  A    between atoms: _156  and  _157
REMARK   48  A    between atoms: _156  and  _159
REMARK   49  A    between atoms: _159  and  _160
REMARK   50  A    between atoms: _160  and  _161
REMARK   51  A    between atoms: _164  and  _166
REMARK   52  A    between atoms: _166  and  _167
REMARK   53  A    between atoms: _166  and  _169
REMARK   54  A    between atoms: _169  and  _170
REMARK   55  A    between atoms: _175  and  _177
REMARK   56  A    between atoms: _177  and  _178
REMARK   57  A    between atoms: _177  and  _180
REMARK   58  A    between atoms: _180  and  _181
REMARK   59  A    between atoms: _181  and  _182
REMARK   60  A    between atoms: _185  and  _187
REMARK   61  A    between atoms: _187  and  _188
REMARK   62  A    between atoms: _187  and  _190
REMARK   63  A    between atoms: _190  and  _191
REMARK   64  A    between atoms: _194  and  _196
REMARK   65  A    between atoms: _196  and  _197
REMARK   66  A    between atoms: _196  and  _199
REMARK   67  A    between atoms: _199  and  _200
REMARK   68  A    between atoms: _201  and  ZN_412
REMARK   69  A    between atoms: _205  and  _207
REMARK   70  A    between atoms: _207  and  _208
REMARK   71  A    between atoms: _207  and  _210
REMARK   72  A    between atoms: _210  and  _211
REMARK   73  A    between atoms: _214  and  _216
REMARK   74  A    between atoms: _216  and  _217
REMARK   75  A    between atoms: _216  and  _219
REMARK   76  A    between atoms: _222  and  _224
REMARK   77  A    between atoms: _224  and  _225
REMARK   78  A    between atoms: _224  and  _227
REMARK   79  A    between atoms: _227  and  _228
REMARK   80  A    between atoms: _233  and  _235
REMARK   81  A    between atoms: _235  and  _236
REMARK   82  A    between atoms: _235  and  _238
REMARK   83  A    between atoms: _238  and  _239
REMARK   84  A    between atoms: _245  and  _247
REMARK   85  A    between atoms: _247  and  _248
REMARK   86  A    between atoms: _247  and  _250
REMARK   87  A    between atoms: _253  and  _255
REMARK   88  A    between atoms: _255  and  _256
REMARK   89  A    between atoms: _255  and  _258
REMARK   90  A    between atoms: _258  and  _259
REMARK   91  A    between atoms: _262  and  _264
REMARK   92  A    between atoms: _264  and  _265
REMARK   93  A    between atoms: _268  and  _270
REMARK   94  A    between atoms: _270  and  _271
REMARK   95  A    between atoms: _270  and  _273
REMARK   96  A    between atoms: _276  and  _278
REMARK   97  A    between atoms: _278  and  _279
REMARK   98  A    between atoms: _278  and  _281
REMARK   99  A    between atoms: _281  and  _282
REMARK  100  A    between atoms: _285  and  _287
REMARK  101  A    between atoms: _287  and  _288
REMARK  102  A    between atoms: _290  and  _292
REMARK  103  A    between atoms: _292  and  _293
REMARK  104  A    between atoms: _292  and  _295
REMARK  105  A    between atoms: _295  and  _296
REMARK  106  A    between atoms: _298  and  _300
REMARK  107  A    between atoms: _300  and  _301
REMARK  108  A    between atoms: _300  and  _303
REMARK  109  A    between atoms: _303  and  _304
REMARK  110  A    between atoms: _310  and  _312
REMARK  111  A    between atoms: _312  and  _313
REMARK  112  A    between atoms: _312  and  _315
REMARK  113  A    between atoms: _315  and  _316
REMARK  114  A    between atoms: _319  and  _321
REMARK  115  A    between atoms: _321  and  _322
REMARK  116  A    between atoms: _321  and  _324
REMARK  117  A    between atoms: _324  and  _325
REMARK  118  A    between atoms: _329  and  _330
REMARK  119  A    between atoms: _336  and  _337
REMARK  120  A    between atoms: _342  and  _344
REMARK  121  A    between atoms: _344  and  _345
REMARK  122  A    between atoms: _344  and  _347
REMARK  123  A    between atoms: _347  and  _348
REMARK  124  A    between atoms: _351  and  _353
REMARK  125  A    between atoms: _353  and  _354
REMARK  126  A    between atoms: _353  and  _356
REMARK  127  A    between atoms: _356  and  _357
REMARK  128  A    between atoms: _360  and  _362
REMARK  129  A    between atoms: _362  and  _363
REMARK  130  A    between atoms: _362  and  _365
REMARK  131  A    between atoms: _368  and  _370
REMARK  132  A    between atoms: _370  and  _371
REMARK  133  A    between atoms: _370  and  _373
REMARK  134  A    between atoms: _373  and  _374
REMARK  135  A    between atoms: _384  and  _386
REMARK  136  A    between atoms: _386  and  _387
REMARK  137  A    between atoms: _386  and  _389
REMARK  138  A    between atoms: _389  and  _390
REMARK  139  A    between atoms: _395  and  _397
REMARK  140  A    between atoms: _397  and  _398
REMARK  141  A    between atoms: _397  and  _400
REMARK  142  A    between atoms: _400  and  _401
REMARK  143  A    between atoms: _401  and  _402
REMARK  144  A    between atoms: _402  and  _403
REMARK                            x       y       z     vdW  Elec       q    Type
REMARK                         _______ _______ _______ _____ _____    ______ ____
ROOT
ATOM      1  O   HOH     1      -4.724   0.789  10.160  0.00  0.00    +0.000 OA
ENDROOT
TORSDOF 0
REMARK  Name = ../refined-set-2016/1ydb/1ydb_pocket.pdb
REMARK  144 active torsions:
REMARK  status: ('A' for Active; 'I' for Inactive)
REMARK    1  A    between atoms: _1  and  _5
REMARK    2  A    between atoms: _5  and  _6
REMARK    3  A    between atoms: _5  and  _8
REMARK    4  A    between atoms: _8  and  _9
REMARK    5  A    between atoms: _19  and  _21
REMARK    6  A    between atoms: _21  and  _22
REMARK    7  A    between atoms: _21  and  _24
REMARK    8  A    between atoms: _24  and  _25
REMARK    9  A    between atoms: _30  and  _31
REMARK   10  A    between atoms: _33  and  _35
REMARK   11  A    between atoms: _35  and  _36
REMARK   12  A    between atoms: _35  and  _38
REMARK   13  A    between atoms: _38  and  _39
REMARK   14  A    between atoms: _42  and  _43
REMARK   15  A    between atoms: _48  and  _50
REMARK   16  A    between atoms: _50  and  _51
REMARK   17  A    between atoms: _50  and  _53
REMARK   18  A    between atoms: _53  and  _54
REMARK   19  A    between atoms: _59  and  _61
REMARK   20  A    between atoms: _61  and  _62
REMARK   21  A    between atoms: _61  and  _64
REMARK   22  A    between atoms: _64  and  _65
REMARK   23  A    between atoms: _70  and  _72
REMARK   24  A    between atoms: _72  and  _73
REMARK   25  A    between atoms: _76  and  _78
REMARK   26  A    between atoms: _78  and  _79
REMARK   27  A    between atoms: _78  and  _81
REMARK   28  A    between atoms: _81  and  _82
REMARK   29  A    between atoms: _87  and  _89
REMARK   30  A    between atoms: _89  and  _90
REMARK   31  A    between atoms: _89  and  _92
REMARK   32  A    between atoms: _92  and  _93
REMARK   33  A    between atoms: _96  and  _98
REMARK   34  A    between atoms: _98  and  _99
REMARK   35  A    between atoms: _98  and  _101
REMARK   36  A    between atoms: _101  and  _102
REMARK   37  A    between atoms: _102  and  _103
REMARK   38  A    between atoms: _108  and  _110
REMARK   39  A    between atoms: _110  and  _111
REMARK   40  A    between atoms: _110  and  _113
REMARK   41  A    between atoms: _113  and  _114
REMARK   42  A    between atoms: _120  and  _122
REMARK   43  A    between atoms: _133  and  _136
REMARK   44  A    between atoms: _136  and  _137
REMARK   45  A    between atoms: _145  and  _146
REMARK   46  A    between atoms: _154  and  _156
REMARK   47  A    between atoms: _156  and  _157
REMARK   48  A    between atoms: _156  and  _159
REMARK   49  A    between atoms: _159  and  _160
REMARK   50  A    between atoms: _160  and  _161
REMARK   51  A    between atoms: _164  and  _166
REMARK   52  A    between atoms: _166  and  _167
REMARK   53  A    between atoms: _166  and  _169
REMARK   54  A    between atoms: _169  and  _170
REMARK   55  A    between atoms: _175  and  _177
REMARK   56  A    between atoms: _177  and  _178
REMARK   57  A    between atoms: _177  and  _180
REMARK   58  A    between atoms: _180  and  _181
REMARK   59  A    between atoms: _181  and  _182
REMARK   60  A    between atoms: _185  and  _187
REMARK   61  A    between atoms: _187  and  _188
REMARK   62  A    between atoms: _187  and  _190
REMARK   63  A    between atoms: _190  and  _191
REMARK   64  A    between atoms: _194  and  _196
REMARK   65  A    between atoms: _196  and  _197
REMARK   66  A    between atoms: _196  and  _199
REMARK   67  A    between atoms: _199  and  _200
REMARK   68  A    between atoms: _201  and  ZN_412
REMARK   69  A    between atoms: _205  and  _207
REMARK   70  A    between atoms: _207  and  _208
REMARK   71  A    between atoms: _207  and  _210
REMARK   72  A    between atoms: _210  and  _211
REMARK   73  A    between atoms: _214  and  _216
REMARK   74  A    between atoms: _216  and  _217
REMARK   75  A    between atoms: _216  and  _219
REMARK   76  A    between atoms: _222  and  _224
REMARK   77  A    between atoms: _224  and  _225
REMARK   78  A    between atoms: _224  and  _227
REMARK   79  A    between atoms: _227  and  _228
REMARK   80  A    between atoms: _233  and  _235
REMARK   81  A    between atoms: _235  and  _236
REMARK   82  A    between atoms: _235  and  _238
REMARK   83  A    between atoms: _238  and  _239
REMARK   84  A    between atoms: _245  and  _247
REMARK   85  A    between atoms: _247  and  _248
REMARK   86  A    between atoms: _247  and  _250
REMARK   87  A    between atoms: _253  and  _255
REMARK   88  A    between atoms: _255  and  _256
REMARK   89  A    between atoms: _255  and  _258
REMARK   90  A    between atoms: _258  and  _259
REMARK   91  A    between atoms: _262  and  _264
REMARK   92  A    between atoms: _264  and  _265
REMARK   93  A    between atoms: _268  and  _270
REMARK   94  A    between atoms: _270  and  _271
REMARK   95  A    between atoms: _270  and  _273
REMARK   96  A    between atoms: _276  and  _278
REMARK   97  A    between atoms: _278  and  _279
REMARK   98  A    between atoms: _278  and  _281
REMARK   99  A    between atoms: _281  and  _282
REMARK  100  A    between atoms: _285  and  _287
REMARK  101  A    between atoms: _287  and  _288
REMARK  102  A    between atoms: _290  and  _292
REMARK  103  A    between atoms: _292  and  _293
REMARK  104  A    between atoms: _292  and  _295
REMARK  105  A    between atoms: _295  and  _296
REMARK  106  A    between atoms: _298  and  _300
REMARK  107  A    between atoms: _300  and  _301
REMARK  108  A    between atoms: _300  and  _303
REMARK  109  A    between atoms: _303  and  _304
REMARK  110  A    between atoms: _310  and  _312
REMARK  111  A    between atoms: _312  and  _313
REMARK  112  A    between atoms: _312  and  _315
REMARK  113  A    between atoms: _315  and  _316
REMARK  114  A    between atoms: _319  and  _321
REMARK  115  A    between atoms: _321  and  _322
REMARK  116  A    between atoms: _321  and  _324
REMARK  117  A    between atoms: _324  and  _325
REMARK  118  A    between atoms: _329  and  _330
REMARK  119  A    between atoms: _336  and  _337
REMARK  120  A    between atoms: _342  and  _344
REMARK  121  A    between atoms: _344  and  _345
REMARK  122  A    between atoms: _344  and  _347
REMARK  123  A    between atoms: _347  and  _348
REMARK  124  A    between atoms: _351  and  _353
REMARK  125  A    between atoms: _353  and  _354
REMARK  126  A    between atoms: _353  and  _356
REMARK  127  A    between atoms: _356  and  _357
REMARK  128  A    between atoms: _360  and  _362
REMARK  129  A    between atoms: _362  and  _363
REMARK  130  A    between atoms: _362  and  _365
REMARK  131  A    between atoms: _368  and  _370
REMARK  132  A    between atoms: _370  and  _371
REMARK  133  A    between atoms: _370  and  _373
REMARK  134  A    between atoms: _373  and  _374
REMARK  135  A    between atoms: _384  and  _386
REMARK  136  A    between atoms: _386  and  _387
REMARK  137  A    between atoms: _386  and  _389
REMARK  138  A    between atoms: _389  and  _390
REMARK  139  A    between atoms: _395  and  _397
REMARK  140  A    between atoms: _397  and  _398
REMARK  141  A    between atoms: _397  and  _400
REMARK  142  A    between atoms: _400  and  _401
REMARK  143  A    between atoms: _401  and  _402
REMARK  144  A    between atoms: _402  and  _403
REMARK                            x       y       z     vdW  Elec       q    Type
REMARK                         _______ _______ _______ _____ _____    ______ ____
ROOT
ATOM      1  O   HOH     1      -6.067   8.425   5.288  0.00  0.00    +0.000 OA
ENDROOT
TORSDOF 0
