REMARK  Name = ../refined-set-2016/3lpk/3lpk_pocket.pdb
REMARK  258 active torsions:
REMARK  status: ('A' for Active; 'I' for Inactive)
REMARK    1  A    between atoms: _1  and  _3
REMARK    2  A    between atoms: _3  and  _4
REMARK    3  A    between atoms: _3  and  _6
REMARK    4  A    between atoms: _6  and  _7
REMARK    5  A    between atoms: _7  and  _8
REMARK    6  A    between atoms: _8  and  _9
REMARK    7  A    between atoms: _9  and  _10
REMARK    8  A    between atoms: _14  and  _16
REMARK    9  A    between atoms: _16  and  _17
REMARK   10  A    between atoms: _16  and  _19
REMARK   11  A    between atoms: _19  and  _20
REMARK   12  A    between atoms: _22  and  _24
REMARK   13  A    between atoms: _24  and  _25
REMARK   14  A    between atoms: _27  and  _29
REMARK   15  A    between atoms: _29  and  _30
REMARK   16  A    between atoms: _29  and  _32
REMARK   17  A    between atoms: _32  and  _33
REMARK   18  A    between atoms: _33  and  _34
REMARK   19  A    between atoms: _39  and  _41
REMARK   20  A    between atoms: _41  and  _42
REMARK   21  A    between atoms: _44  and  _46
REMARK   22  A    between atoms: _46  and  _47
REMARK   23  A    between atoms: _46  and  _49
REMARK   24  A    between atoms: _49  and  _50
REMARK   25  A    between atoms: _55  and  _56
REMARK   26  A    between atoms: _58  and  _60
REMARK   27  A    between atoms: _60  and  _61
REMARK   28  A    between atoms: _60  and  _63
REMARK   29  A    between atoms: _63  and  _64
REMARK   30  A    between atoms: _67  and  _69
REMARK   31  A    between atoms: _69  and  _70
REMARK   32  A    between atoms: _69  and  _72
REMARK   33  A    between atoms: _75  and  _77
REMARK   34  A    between atoms: _77  and  _78
REMARK   35  A    between atoms: _77  and  _80
REMARK   36  A    between atoms: _80  and  _81
REMARK   37  A    between atoms: _84  and  _86
REMARK   38  A    between atoms: _86  and  _87
REMARK   39  A    between atoms: _86  and  _89
REMARK   40  A    between atoms: _89  and  _90
REMARK   41  A    between atoms: _93  and  _95
REMARK   42  A    between atoms: _95  and  _96
REMARK   43  A    between atoms: _98  and  _100
REMARK   44  A    between atoms: _100  and  _101
REMARK   45  A    between atoms: _100  and  _103
REMARK   46  A    between atoms: _103  and  _104
REMARK   47  A    between atoms: _106  and  _108
REMARK   48  A    between atoms: _108  and  _109
REMARK   49  A    between atoms: _108  and  _111
REMARK   50  A    between atoms: _111  and  _112
REMARK   51  A    between atoms: _114  and  _116
REMARK   52  A    between atoms: _116  and  _117
REMARK   53  A    between atoms: _116  and  _119
REMARK   54  A    between atoms: _119  and  _120
REMARK   55  A    between atoms: _125  and  _127
REMARK   56  A    between atoms: _127  and  _128
REMARK   57  A    between atoms: _127  and  _130
REMARK   58  A    between atoms: _130  and  _131
REMARK   59  A    between atoms: _136  and  _137
REMARK   60  A    between atoms: _139  and  _141
REMARK   61  A    between atoms: _141  and  _142
REMARK   62  A    between atoms: _141  and  _144
REMARK   63  A    between atoms: _148  and  _149
REMARK   64  A    between atoms: _154  and  _156
REMARK   65  A    between atoms: _156  and  _157
REMARK   66  A    between atoms: _156  and  _159
REMARK   67  A    between atoms: _159  and  _160
REMARK   68  A    between atoms: _165  and  _166
REMARK   69  A    between atoms: _168  and  _170
REMARK   70  A    between atoms: _170  and  _171
REMARK   71  A    between atoms: _170  and  _173
REMARK   72  A    between atoms: _173  and  _174
REMARK   73  A    between atoms: _177  and  _179
REMARK   74  A    between atoms: _179  and  _180
REMARK   75  A    between atoms: _179  and  _182
REMARK   76  A    between atoms: _182  and  _183
REMARK   77  A    between atoms: _183  and  _184
REMARK   78  A    between atoms: _189  and  _191
REMARK   79  A    between atoms: _191  and  _192
REMARK   80  A    between atoms: _194  and  _196
REMARK   81  A    between atoms: _196  and  _197
REMARK   82  A    between atoms: _196  and  _199
REMARK   83  A    between atoms: _199  and  _200
REMARK   84  A    between atoms: _200  and  _201
REMARK   85  A    between atoms: _201  and  _202
REMARK   86  A    between atoms: _202  and  _203
REMARK   87  A    between atoms: _207  and  _209
REMARK   88  A    between atoms: _209  and  _210
REMARK   89  A    between atoms: _209  and  _212
REMARK   90  A    between atoms: _212  and  _213
REMARK   91  A    between atoms: _223  and  _225
REMARK   92  A    between atoms: _225  and  _226
REMARK   93  A    between atoms: _225  and  _228
REMARK   94  A    between atoms: _228  and  _229
REMARK   95  A    between atoms: _232  and  _234
REMARK   96  A    between atoms: _234  and  _235
REMARK   97  A    between atoms: _234  and  _237
REMARK   98  A    between atoms: _237  and  _238
REMARK   99  A    between atoms: _238  and  _239
REMARK  100  A    between atoms: _239  and  _240
REMARK  101  A    between atoms: _240  and  _241
REMARK  102  A    between atoms: _245  and  _247
REMARK  103  A    between atoms: _247  and  _248
REMARK  104  A    between atoms: _247  and  _250
REMARK  105  A    between atoms: _250  and  _251
REMARK  106  A    between atoms: _257  and  _259
REMARK  107  A    between atoms: _259  and  _260
REMARK  108  A    between atoms: _259  and  _262
REMARK  109  A    between atoms: _262  and  _263
REMARK  110  A    between atoms: _269  and  _271
REMARK  111  A    between atoms: _271  and  _272
REMARK  112  A    between atoms: _271  and  _274
REMARK  113  A    between atoms: _274  and  _275
REMARK  114  A    between atoms: _278  and  _280
REMARK  115  A    between atoms: _280  and  _281
REMARK  116  A    between atoms: _280  and  _283
REMARK  117  A    between atoms: _283  and  _284
REMARK  118  A    between atoms: _286  and  _288
REMARK  119  A    between atoms: _288  and  _289
REMARK  120  A    between atoms: _288  and  _291
REMARK  121  A    between atoms: _291  and  _292
REMARK  122  A    between atoms: _302  and  _304
REMARK  123  A    between atoms: _304  and  _305
REMARK  124  A    between atoms: _307  and  _309
REMARK  125  A    between atoms: _309  and  _310
REMARK  126  A    between atoms: _309  and  _312
REMARK  127  A    between atoms: _312  and  _313
REMARK  128  A    between atoms: _316  and  _318
REMARK  129  A    between atoms: _318  and  _319
REMARK  130  A    between atoms: _318  and  _321
REMARK  131  A    between atoms: _321  and  _322
REMARK  132  A    between atoms: _325  and  _327
REMARK  133  A    between atoms: _327  and  _328
REMARK  134  A    between atoms: _330  and  _332
REMARK  135  A    between atoms: _332  and  _333
REMARK  136  A    between atoms: _332  and  _335
REMARK  137  A    between atoms: _335  and  _336
REMARK  138  A    between atoms: _339  and  _341
REMARK  139  A    between atoms: _341  and  _342
REMARK  140  A    between atoms: _345  and  _347
REMARK  141  A    between atoms: _347  and  _348
REMARK  142  A    between atoms: _347  and  _350
REMARK  143  A    between atoms: _350  and  _351
REMARK  144  A    between atoms: _356  and  _357
REMARK  145  A    between atoms: _359  and  _361
REMARK  146  A    between atoms: _361  and  _362
REMARK  147  A    between atoms: _361  and  _364
REMARK  148  A    between atoms: _364  and  _365
REMARK  149  A    between atoms: _365  and  _366
REMARK  150  A    between atoms: _369  and  _371
REMARK  151  A    between atoms: _371  and  _372
REMARK  152  A    between atoms: _371  and  _374
REMARK  153  A    between atoms: _374  and  _375
REMARK  154  A    between atoms: _378  and  _380
REMARK  155  A    between atoms: _380  and  _381
REMARK  156  A    between atoms: _384  and  _386
REMARK  157  A    between atoms: _386  and  _387
REMARK  158  A    between atoms: _386  and  _389
REMARK  159  A    between atoms: _389  and  _390
REMARK  160  A    between atoms: _390  and  _391
REMARK  161  A    between atoms: _391  and  _392
REMARK  162  A    between atoms: _401  and  _403
REMARK  163  A    between atoms: _403  and  _404
REMARK  164  A    between atoms: _403  and  _406
REMARK  165  A    between atoms: _406  and  _407
REMARK  166  A    between atoms: _417  and  _419
REMARK  167  A    between atoms: _419  and  _420
REMARK  168  A    between atoms: _419  and  _422
REMARK  169  A    between atoms: _422  and  _423
REMARK  170  A    between atoms: _428  and  _429
REMARK  171  A    between atoms: _431  and  _433
REMARK  172  A    between atoms: _433  and  _434
REMARK  173  A    between atoms: _433  and  _436
REMARK  174  A    between atoms: _436  and  _437
REMARK  175  A    between atoms: _442  and  _443
REMARK  176  A    between atoms: _445  and  _447
REMARK  177  A    between atoms: _447  and  _448
REMARK  178  A    between atoms: _447  and  _450
REMARK  179  A    between atoms: _450  and  _451
REMARK  180  A    between atoms: _451  and  _452
REMARK  181  A    between atoms: _452  and  _453
REMARK  182  A    between atoms: _453  and  _454
REMARK  183  A    between atoms: _458  and  _460
REMARK  184  A    between atoms: _460  and  _461
REMARK  185  A    between atoms: _460  and  _463
REMARK  186  A    between atoms: _463  and  _464
REMARK  187  A    between atoms: _467  and  _469
REMARK  188  A    between atoms: _469  and  _470
REMARK  189  A    between atoms: _469  and  _472
REMARK  190  A    between atoms: _475  and  _477
REMARK  191  A    between atoms: _477  and  _478
REMARK  192  A    between atoms: _477  and  _480
REMARK  193  A    between atoms: _480  and  _481
REMARK  194  A    between atoms: _484  and  _486
REMARK  195  A    between atoms: _486  and  _487
REMARK  196  A    between atoms: _486  and  _489
REMARK  197  A    between atoms: _489  and  _490
REMARK  198  A    between atoms: _492  and  _494
REMARK  199  A    between atoms: _494  and  _495
REMARK  200  A    between atoms: _497  and  _499
REMARK  201  A    between atoms: _499  and  _500
REMARK  202  A    between atoms: _499  and  _502
REMARK  203  A    between atoms: _502  and  _503
REMARK  204  A    between atoms: _506  and  _508
REMARK  205  A    between atoms: _508  and  _509
REMARK  206  A    between atoms: _508  and  _511
REMARK  207  A    between atoms: _511  and  _512
REMARK  208  A    between atoms: _515  and  _517
REMARK  209  A    between atoms: _517  and  _518
REMARK  210  A    between atoms: _517  and  _520
REMARK  211  A    between atoms: _520  and  _521
REMARK  212  A    between atoms: _526  and  _528
REMARK  213  A    between atoms: _528  and  _529
REMARK  214  A    between atoms: _528  and  _531
REMARK  215  A    between atoms: _531  and  _532
REMARK  216  A    between atoms: _532  and  _533
REMARK  217  A    between atoms: _533  and  _534
REMARK  218  A    between atoms: _543  and  _545
REMARK  219  A    between atoms: _545  and  _546
REMARK  220  A    between atoms: _545  and  _548
REMARK  221  A    between atoms: _548  and  _549
REMARK  222  A    between atoms: _549  and  _550
REMARK  223  A    between atoms: _550  and  _551
REMARK  224  A    between atoms: _560  and  _562
REMARK  225  A    between atoms: _562  and  _563
REMARK  226  A    between atoms: _562  and  _565
REMARK  227  A    between atoms: _565  and  _566
REMARK  228  A    between atoms: _568  and  _570
REMARK  229  A    between atoms: _570  and  _571
REMARK  230  A    between atoms: _570  and  _573
REMARK  231  A    between atoms: _573  and  _574
REMARK  232  A    between atoms: _574  and  _575
REMARK  233  A    between atoms: _580  and  _582
REMARK  234  A    between atoms: _582  and  _583
REMARK  235  A    between atoms: _582  and  _585
REMARK  236  A    between atoms: _585  and  _586
REMARK  237  A    between atoms: _588  and  _590
REMARK  238  A    between atoms: _590  and  _591
REMARK  239  A    between atoms: _590  and  _593
REMARK  240  A    between atoms: _593  and  _594
REMARK  241  A    between atoms: _596  and  _598
REMARK  242  A    between atoms: _598  and  _599
REMARK  243  A    between atoms: _598  and  _601
REMARK  244  A    between atoms: _601  and  _602
REMARK  245  A    between atoms: _605  and  _607
REMARK  246  A    between atoms: _607  and  _608
REMARK  247  A    between atoms: _607  and  _610
REMARK  248  A    between atoms: _610  and  _611
REMARK  249  A    between atoms: _614  and  _616
REMARK  250  A    between atoms: _616  and  _617
REMARK  251  A    between atoms: _616  and  _619
REMARK  252  A    between atoms: _622  and  _624
REMARK  253  A    between atoms: _624  and  _625
REMARK  254  A    between atoms: _627  and  _629
REMARK  255  A    between atoms: _629  and  _630
REMARK  256  A    between atoms: _633  and  _635
REMARK  257  A    between atoms: _635  and  _636
REMARK  258  A    between atoms: _635  and  _638
REMARK                            x       y       z     vdW  Elec       q    Type
REMARK                         _______ _______ _______ _____ _____    ______ ____
ROOT
ATOM      1  CA  GLN A   4      33.096  10.297  18.851  0.00  0.00    +0.149 C 
ENDROOT
BRANCH   1   4
ATOM      2  C   GLY A   3      33.857  11.717  20.660  0.00  0.00    +0.243 C 
ATOM      3  O   GLY A   3      33.113  12.627  20.290  0.00  0.00    -0.273 OA
ATOM      4  N   GLN A   4      33.925  10.549  20.028  0.00  0.00    -0.297 N 
ATOM      5  H   GLN A   4      34.571   9.811  20.373  0.00  0.00    +0.150 HD
BRANCH   2   6
ATOM      6  CA  GLY A   3      34.747  11.916  21.874  0.00  0.00    +0.176 C 
BRANCH   6   9
ATOM      7  C   SER A   2      34.356   9.973  23.251  0.00  0.00    +0.243 C 
ATOM      8  O   SER A   2      33.145  10.223  23.323  0.00  0.00    -0.273 OA
ATOM      9  N   GLY A   3      35.209  10.722  22.561  0.00  0.00    -0.295 N 
ATOM     10  H   GLY A   3      36.212  10.452  22.512  0.00  0.00    +0.150 HD
BRANCH   7  11
ATOM     11  CA  SER A   2      34.934   8.756  23.967  0.00  0.00    +0.178 C 
BRANCH  11  13
ATOM     12  C   LYS A   1      35.613   7.524  21.976  0.00  0.00    +0.238 C 
ATOM     13  N   SER A   2      35.877   7.934  23.212  0.00  0.00    -0.295 N 
ATOM     14  H   SER A   2      36.779   7.663  23.654  0.00  0.00    +0.150 HD
ATOM     15  O   LYS A   1      34.592   7.846  21.370  0.00  0.00    -0.274 OA
BRANCH  12  16
ATOM     16  CA  LYS A   1      36.656   6.624  21.321  0.00  0.00    +0.145 C 
BRANCH  16  17
ATOM     17  N   LYS A   1      36.074   5.926  20.179  0.00  0.00    -0.238 NA
ATOM     18  H   LYS A   1      35.180   6.275  19.777  0.00  0.00    +0.142 HD
ENDBRANCH  16  17
BRANCH  16  19
ATOM     19  CB  LYS A   1      37.880   7.437  20.878  0.00  0.00    +0.026 C 
BRANCH  19  20
ATOM     20  CG  LYS A   1      37.650   8.354  19.690  0.00  0.00    -0.000 C 
BRANCH  20  21
ATOM     21  CD  LYS A   1      38.960   9.024  19.286  0.00  0.00    -0.024 C 
BRANCH  21  22
ATOM     22  CE  LYS A   1      38.808   9.880  18.037  0.00  0.00    -0.086 C 
BRANCH  22  23
ATOM     23  NZ  LYS A   1      40.108  10.526  17.677  0.00  0.00    +0.380 N 
ATOM     24  HZ1 LYS A   1      40.423  11.130  18.463  0.00  0.00    -0.089 HD
ATOM     25  HZ2 LYS A   1      40.821   9.791  17.496  0.00  0.00    -0.089 HD
ATOM     26  HZ3 LYS A   1      39.981  11.105  16.822  0.00  0.00    -0.089 HD
ENDBRANCH  22  23
ENDBRANCH  21  22
ENDBRANCH  20  21
ENDBRANCH  19  20
ENDBRANCH  16  19
ENDBRANCH  12  16
ENDBRANCH  11  13
BRANCH  11  27
ATOM     27  CB  SER A   2      35.573   9.205  25.285  0.00  0.00    +0.166 C 
BRANCH  27  28
ATOM     28  OG  SER A   2      36.750   9.959  25.056  0.00  0.00    -0.380 OA
ATOM     29  H   SER A   2      37.139  10.234  25.924  0.00  0.00    +0.211 HD
ENDBRANCH  27  28
ENDBRANCH  11  27
ENDBRANCH   7  11
ENDBRANCH   6   9
ENDBRANCH   2   6
ENDBRANCH   1   4
BRANCH   1  30
ATOM     30  C   GLN A   4      32.161   9.104  19.026  0.00  0.00    +0.241 C 
ATOM     31  N   GLY A   5      32.303   8.394  20.143  0.00  0.00    -0.295 N 
ATOM     32  H   GLY A   5      33.032   8.662  20.834  0.00  0.00    +0.150 HD
ATOM     33  O   GLN A   4      31.327   8.835  18.165  0.00  0.00    -0.273 OA
BRANCH  31  34
ATOM     34  CA  GLY A   5      31.450   7.248  20.406  0.00  0.00    +0.176 C 
BRANCH  34  35
ATOM     35  C   GLY A   5      32.058   5.906  20.036  0.00  0.00    +0.243 C 
ATOM     36  N   TYR A   6      31.567   4.842  20.669  0.00  0.00    -0.298 N 
ATOM     37  H   TYR A   6      30.822   4.981  21.381  0.00  0.00    +0.150 HD
ATOM     38  O   GLY A   5      32.963   5.838  19.203  0.00  0.00    -0.273 OA
BRANCH  36  39
ATOM     39  CA  TYR A   6      32.039   3.484  20.398  0.00  0.00    +0.141 C 
BRANCH  39  40
ATOM     40  C   TYR A   6      30.972   2.770  19.577  0.00  0.00    +0.227 C 
ATOM     41  O   TYR A   6      29.776   2.892  19.851  0.00  0.00    -0.286 OA
ENDBRANCH  39  40
BRANCH  39  42
ATOM     42  CB  TYR A   6      32.296   2.726  21.706  0.00  0.00    +0.054 C 
BRANCH  42  43
ATOM     43  CG  TYR A   6      33.501   3.233  22.465  0.00  0.00    -0.020 A 
ATOM     44  CD2 TYR A   6      33.402   4.307  23.347  0.00  0.00    -0.001 A 
ATOM     45  CE2 TYR A   6      34.524   4.793  24.014  0.00  0.00    +0.036 A 
ATOM     46  CZ  TYR A   6      35.756   4.199  23.795  0.00  0.00    +0.134 A 
ATOM     47  CE1 TYR A   6      35.869   3.135  22.926  0.00  0.00    +0.036 A 
ATOM     48  CD1 TYR A   6      34.750   2.660  22.270  0.00  0.00    -0.001 A 
BRANCH  46  49
ATOM     49  OH  TYR A   6      36.887   4.660  24.441  0.00  0.00    -0.506 OA
ATOM     50  HH  TYR A   6      36.644   5.421  25.026  0.00  0.00    +0.292 HD
ENDBRANCH  46  49
ENDBRANCH  42  43
ENDBRANCH  39  42
ENDBRANCH  36  39
ENDBRANCH  34  35
ENDBRANCH  31  34
ENDBRANCH   1  30
BRANCH   1  51
ATOM     51  CB  GLN A   4      33.977  10.082  17.621  0.00  0.00    +0.039 C 
BRANCH  51  52
ATOM     52  CG  GLN A   4      34.923  11.236  17.344  0.00  0.00    +0.087 C 
BRANCH  52  53
ATOM     53  CD  GLN A   4      35.610  11.117  15.997  0.00  0.00    +0.219 C 
ATOM     54  OE1 GLN A   4      36.256  10.108  15.697  0.00  0.00    -0.275 OA
ATOM     55  NE2 GLN A   4      35.477  12.155  15.175  0.00  0.00    -0.329 N 
ATOM     56 HE21 GLN A   4      34.923  12.984  15.470  0.00  0.00    +0.145 HD
ATOM     57 HE22 GLN A   4      35.927  12.137  14.237  0.00  0.00    +0.145 HD
ENDBRANCH  52  53
ENDBRANCH  51  52
ENDBRANCH   1  51
TORSDOF 25
REMARK  Name = ../refined-set-2016/3lpk/3lpk_pocket.pdb
REMARK  258 active torsions:
REMARK  status: ('A' for Active; 'I' for Inactive)
REMARK    1  A    between atoms: _1  and  _3
REMARK    2  A    between atoms: _3  and  _4
REMARK    3  A    between atoms: _3  and  _6
REMARK    4  A    between atoms: _6  and  _7
REMARK    5  A    between atoms: _7  and  _8
REMARK    6  A    between atoms: _8  and  _9
REMARK    7  A    between atoms: _9  and  _10
REMARK    8  A    between atoms: _14  and  _16
REMARK    9  A    between atoms: _16  and  _17
REMARK   10  A    between atoms: _16  and  _19
REMARK   11  A    between atoms: _19  and  _20
REMARK   12  A    between atoms: _22  and  _24
REMARK   13  A    between atoms: _24  and  _25
REMARK   14  A    between atoms: _27  and  _29
REMARK   15  A    between atoms: _29  and  _30
REMARK   16  A    between atoms: _29  and  _32
REMARK   17  A    between atoms: _32  and  _33
REMARK   18  A    between atoms: _33  and  _34
REMARK   19  A    between atoms: _39  and  _41
REMARK   20  A    between atoms: _41  and  _42
REMARK   21  A    between atoms: _44  and  _46
REMARK   22  A    between atoms: _46  and  _47
REMARK   23  A    between atoms: _46  and  _49
REMARK   24  A    between atoms: _49  and  _50
REMARK   25  A    between atoms: _55  and  _56
REMARK   26  A    between atoms: _58  and  _60
REMARK   27  A    between atoms: _60  and  _61
REMARK   28  A    between atoms: _60  and  _63
REMARK   29  A    between atoms: _63  and  _64
REMARK   30  A    between atoms: _67  and  _69
REMARK   31  A    between atoms: _69  and  _70
REMARK   32  A    between atoms: _69  and  _72
REMARK   33  A    between atoms: _75  and  _77
REMARK   34  A    between atoms: _77  and  _78
REMARK   35  A    between atoms: _77  and  _80
REMARK   36  A    between atoms: _80  and  _81
REMARK   37  A    between atoms: _84  and  _86
REMARK   38  A    between atoms: _86  and  _87
REMARK   39  A    between atoms: _86  and  _89
REMARK   40  A    between atoms: _89  and  _90
REMARK   41  A    between atoms: _93  and  _95
REMARK   42  A    between atoms: _95  and  _96
REMARK   43  A    between atoms: _98  and  _100
REMARK   44  A    between atoms: _100  and  _101
REMARK   45  A    between atoms: _100  and  _103
REMARK   46  A    between atoms: _103  and  _104
REMARK   47  A    between atoms: _106  and  _108
REMARK   48  A    between atoms: _108  and  _109
REMARK   49  A    between atoms: _108  and  _111
REMARK   50  A    between atoms: _111  and  _112
REMARK   51  A    between atoms: _114  and  _116
REMARK   52  A    between atoms: _116  and  _117
REMARK   53  A    between atoms: _116  and  _119
REMARK   54  A    between atoms: _119  and  _120
REMARK   55  A    between atoms: _125  and  _127
REMARK   56  A    between atoms: _127  and  _128
REMARK   57  A    between atoms: _127  and  _130
REMARK   58  A    between atoms: _130  and  _131
REMARK   59  A    between atoms: _136  and  _137
REMARK   60  A    between atoms: _139  and  _141
REMARK   61  A    between atoms: _141  and  _142
REMARK   62  A    between atoms: _141  and  _144
REMARK   63  A    between atoms: _148  and  _149
REMARK   64  A    between atoms: _154  and  _156
REMARK   65  A    between atoms: _156  and  _157
REMARK   66  A    between atoms: _156  and  _159
REMARK   67  A    between atoms: _159  and  _160
REMARK   68  A    between atoms: _165  and  _166
REMARK   69  A    between atoms: _168  and  _170
REMARK   70  A    between atoms: _170  and  _171
REMARK   71  A    between atoms: _170  and  _173
REMARK   72  A    between atoms: _173  and  _174
REMARK   73  A    between atoms: _177  and  _179
REMARK   74  A    between atoms: _179  and  _180
REMARK   75  A    between atoms: _179  and  _182
REMARK   76  A    between atoms: _182  and  _183
REMARK   77  A    between atoms: _183  and  _184
REMARK   78  A    between atoms: _189  and  _191
REMARK   79  A    between atoms: _191  and  _192
REMARK   80  A    between atoms: _194  and  _196
REMARK   81  A    between atoms: _196  and  _197
REMARK   82  A    between atoms: _196  and  _199
REMARK   83  A    between atoms: _199  and  _200
REMARK   84  A    between atoms: _200  and  _201
REMARK   85  A    between atoms: _201  and  _202
REMARK   86  A    between atoms: _202  and  _203
REMARK   87  A    between atoms: _207  and  _209
REMARK   88  A    between atoms: _209  and  _210
REMARK   89  A    between atoms: _209  and  _212
REMARK   90  A    between atoms: _212  and  _213
REMARK   91  A    between atoms: _223  and  _225
REMARK   92  A    between atoms: _225  and  _226
REMARK   93  A    between atoms: _225  and  _228
REMARK   94  A    between atoms: _228  and  _229
REMARK   95  A    between atoms: _232  and  _234
REMARK   96  A    between atoms: _234  and  _235
REMARK   97  A    between atoms: _234  and  _237
REMARK   98  A    between atoms: _237  and  _238
REMARK   99  A    between atoms: _238  and  _239
REMARK  100  A    between atoms: _239  and  _240
REMARK  101  A    between atoms: _240  and  _241
REMARK  102  A    between atoms: _245  and  _247
REMARK  103  A    between atoms: _247  and  _248
REMARK  104  A    between atoms: _247  and  _250
REMARK  105  A    between atoms: _250  and  _251
REMARK  106  A    between atoms: _257  and  _259
REMARK  107  A    between atoms: _259  and  _260
REMARK  108  A    between atoms: _259  and  _262
REMARK  109  A    between atoms: _262  and  _263
REMARK  110  A    between atoms: _269  and  _271
REMARK  111  A    between atoms: _271  and  _272
REMARK  112  A    between atoms: _271  and  _274
REMARK  113  A    between atoms: _274  and  _275
REMARK  114  A    between atoms: _278  and  _280
REMARK  115  A    between atoms: _280  and  _281
REMARK  116  A    between atoms: _280  and  _283
REMARK  117  A    between atoms: _283  and  _284
REMARK  118  A    between atoms: _286  and  _288
REMARK  119  A    between atoms: _288  and  _289
REMARK  120  A    between atoms: _288  and  _291
REMARK  121  A    between atoms: _291  and  _292
REMARK  122  A    between atoms: _302  and  _304
REMARK  123  A    between atoms: _304  and  _305
REMARK  124  A    between atoms: _307  and  _309
REMARK  125  A    between atoms: _309  and  _310
REMARK  126  A    between atoms: _309  and  _312
REMARK  127  A    between atoms: _312  and  _313
REMARK  128  A    between atoms: _316  and  _318
REMARK  129  A    between atoms: _318  and  _319
REMARK  130  A    between atoms: _318  and  _321
REMARK  131  A    between atoms: _321  and  _322
REMARK  132  A    between atoms: _325  and  _327
REMARK  133  A    between atoms: _327  and  _328
REMARK  134  A    between atoms: _330  and  _332
REMARK  135  A    between atoms: _332  and  _333
REMARK  136  A    between atoms: _332  and  _335
REMARK  137  A    between atoms: _335  and  _336
REMARK  138  A    between atoms: _339  and  _341
REMARK  139  A    between atoms: _341  and  _342
REMARK  140  A    between atoms: _345  and  _347
REMARK  141  A    between atoms: _347  and  _348
REMARK  142  A    between atoms: _347  and  _350
REMARK  143  A    between atoms: _350  and  _351
REMARK  144  A    between atoms: _356  and  _357
REMARK  145  A    between atoms: _359  and  _361
REMARK  146  A    between atoms: _361  and  _362
REMARK  147  A    between atoms: _361  and  _364
REMARK  148  A    between atoms: _364  and  _365
REMARK  149  A    between atoms: _365  and  _366
REMARK  150  A    between atoms: _369  and  _371
REMARK  151  A    between atoms: _371  and  _372
REMARK  152  A    between atoms: _371  and  _374
REMARK  153  A    between atoms: _374  and  _375
REMARK  154  A    between atoms: _378  and  _380
REMARK  155  A    between atoms: _380  and  _381
REMARK  156  A    between atoms: _384  and  _386
REMARK  157  A    between atoms: _386  and  _387
REMARK  158  A    between atoms: _386  and  _389
REMARK  159  A    between atoms: _389  and  _390
REMARK  160  A    between atoms: _390  and  _391
REMARK  161  A    between atoms: _391  and  _392
REMARK  162  A    between atoms: _401  and  _403
REMARK  163  A    between atoms: _403  and  _404
REMARK  164  A    between atoms: _403  and  _406
REMARK  165  A    between atoms: _406  and  _407
REMARK  166  A    between atoms: _417  and  _419
REMARK  167  A    between atoms: _419  and  _420
REMARK  168  A    between atoms: _419  and  _422
REMARK  169  A    between atoms: _422  and  _423
REMARK  170  A    between atoms: _428  and  _429
REMARK  171  A    between atoms: _431  and  _433
REMARK  172  A    between atoms: _433  and  _434
REMARK  173  A    between atoms: _433  and  _436
REMARK  174  A    between atoms: _436  and  _437
REMARK  175  A    between atoms: _442  and  _443
REMARK  176  A    between atoms: _445  and  _447
REMARK  177  A    between atoms: _447  and  _448
REMARK  178  A    between atoms: _447  and  _450
REMARK  179  A    between atoms: _450  and  _451
REMARK  180  A    between atoms: _451  and  _452
REMARK  181  A    between atoms: _452  and  _453
REMARK  182  A    between atoms: _453  and  _454
REMARK  183  A    between atoms: _458  and  _460
REMARK  184  A    between atoms: _460  and  _461
REMARK  185  A    between atoms: _460  and  _463
REMARK  186  A    between atoms: _463  and  _464
REMARK  187  A    between atoms: _467  and  _469
REMARK  188  A    between atoms: _469  and  _470
REMARK  189  A    between atoms: _469  and  _472
REMARK  190  A    between atoms: _475  and  _477
REMARK  191  A    between atoms: _477  and  _478
REMARK  192  A    between atoms: _477  and  _480
REMARK  193  A    between atoms: _480  and  _481
REMARK  194  A    between atoms: _484  and  _486
REMARK  195  A    between atoms: _486  and  _487
REMARK  196  A    between atoms: _486  and  _489
REMARK  197  A    between atoms: _489  and  _490
REMARK  198  A    between atoms: _492  and  _494
REMARK  199  A    between atoms: _494  and  _495
REMARK  200  A    between atoms: _497  and  _499
REMARK  201  A    between atoms: _499  and  _500
REMARK  202  A    between atoms: _499  and  _502
REMARK  203  A    between atoms: _502  and  _503
REMARK  204  A    between atoms: _506  and  _508
REMARK  205  A    between atoms: _508  and  _509
REMARK  206  A    between atoms: _508  and  _511
REMARK  207  A    between atoms: _511  and  _512
REMARK  208  A    between atoms: _515  and  _517
REMARK  209  A    between atoms: _517  and  _518
REMARK  210  A    between atoms: _517  and  _520
REMARK  211  A    between atoms: _520  and  _521
REMARK  212  A    between atoms: _526  and  _528
REMARK  213  A    between atoms: _528  and  _529
REMARK  214  A    between atoms: _528  and  _531
REMARK  215  A    between atoms: _531  and  _532
REMARK  216  A    between atoms: _532  and  _533
REMARK  217  A    between atoms: _533  and  _534
REMARK  218  A    between atoms: _543  and  _545
REMARK  219  A    between atoms: _545  and  _546
REMARK  220  A    between atoms: _545  and  _548
REMARK  221  A    between atoms: _548  and  _549
REMARK  222  A    between atoms: _549  and  _550
REMARK  223  A    between atoms: _550  and  _551
REMARK  224  A    between atoms: _560  and  _562
REMARK  225  A    between atoms: _562  and  _563
REMARK  226  A    between atoms: _562  and  _565
REMARK  227  A    between atoms: _565  and  _566
REMARK  228  A    between atoms: _568  and  _570
REMARK  229  A    between atoms: _570  and  _571
REMARK  230  A    between atoms: _570  and  _573
REMARK  231  A    between atoms: _573  and  _574
REMARK  232  A    between atoms: _574  and  _575
REMARK  233  A    between atoms: _580  and  _582
REMARK  234  A    between atoms: _582  and  _583
REMARK  235  A    between atoms: _582  and  _585
REMARK  236  A    between atoms: _585  and  _586
REMARK  237  A    between atoms: _588  and  _590
REMARK  238  A    between atoms: _590  and  _591
REMARK  239  A    between atoms: _590  and  _593
REMARK  240  A    between atoms: _593  and  _594
REMARK  241  A    between atoms: _596  and  _598
REMARK  242  A    between atoms: _598  and  _599
REMARK  243  A    between atoms: _598  and  _601
REMARK  244  A    between atoms: _601  and  _602
REMARK  245  A    between atoms: _605  and  _607
REMARK  246  A    between atoms: _607  and  _608
REMARK  247  A    between atoms: _607  and  _610
REMARK  248  A    between atoms: _610  and  _611
REMARK  249  A    between atoms: _614  and  _616
REMARK  250  A    between atoms: _616  and  _617
REMARK  251  A    between atoms: _616  and  _619
REMARK  252  A    between atoms: _622  and  _624
REMARK  253  A    between atoms: _624  and  _625
REMARK  254  A    between atoms: _627  and  _629
REMARK  255  A    between atoms: _629  and  _630
REMARK  256  A    between atoms: _633  and  _635
REMARK  257  A    between atoms: _635  and  _636
REMARK  258  A    between atoms: _635  and  _638
REMARK                            x       y       z     vdW  Elec       q    Type
REMARK                         _______ _______ _______ _____ _____    ______ ____
ROOT
ATOM      1  C   THR A   4      21.796   4.039  26.917  0.00  0.00    +0.243 C 
ATOM      2  O   THR A   4      21.021   3.872  27.853  0.00  0.00    -0.273 OA
ATOM      3  N   GLY A   5      21.914   5.201  26.268  0.00  0.00    -0.295 N 
ATOM      4  H   GLY A   5      22.571   5.272  25.465  0.00  0.00    +0.150 HD
ENDROOT
BRANCH   3   5
ATOM      5  CA  GLY A   5      21.140   6.371  26.663  0.00  0.00    +0.176 C 
BRANCH   5   6
ATOM      6  C   GLY A   5      19.886   6.679  25.851  0.00  0.00    +0.243 C 
ATOM      7  O   GLY A   5      19.252   7.713  26.060  0.00  0.00    -0.273 OA
ATOM      8  N   SER A   6      19.538   5.807  24.906  0.00  0.00    -0.295 N 
ATOM      9  H   SER A   6      20.142   4.978  24.736  0.00  0.00    +0.150 HD
BRANCH   8  10
ATOM     10  CA  SER A   6      18.323   5.984  24.096  0.00  0.00    +0.178 C 
BRANCH  10  11
ATOM     11  C   SER A   6      17.803   4.585  23.743  0.00  0.00    +0.243 C 
ATOM     12  O   SER A   6      18.448   3.588  24.069  0.00  0.00    -0.273 OA
ATOM     13  N   SER A   7      16.656   4.497  23.078  0.00  0.00    -0.295 N 
ATOM     14  H   SER A   7      16.167   5.359  22.764  0.00  0.00    +0.150 HD
BRANCH  13  15
ATOM     15  CA  SER A   7      16.087   3.187  22.790  0.00  0.00    +0.178 C 
BRANCH  15  16
ATOM     16  C   SER A   7      15.654   2.902  21.351  0.00  0.00    +0.243 C 
ATOM     17  O   SER A   7      14.910   1.949  21.107  0.00  0.00    -0.273 OA
ATOM     18  N   ASN A   8      16.105   3.716  20.405  0.00  0.00    -0.298 N 
ATOM     19  H   ASN A   8      16.711   4.520  20.666  0.00  0.00    +0.150 HD
BRANCH  18  20
ATOM     20  CA  ASN A   8      15.762   3.498  19.007  0.00  0.00    +0.146 C 
BRANCH  20  21
ATOM     21  C   ASN A   8      16.946   2.979  18.213  0.00  0.00    +0.227 C 
ATOM     22  O   ASN A   8      18.078   3.425  18.403  0.00  0.00    -0.286 OA
ENDBRANCH  20  21
BRANCH  20  23
ATOM     23  CB  ASN A   8      15.285   4.791  18.336  0.00  0.00    +0.112 C 
BRANCH  23  24
ATOM     24  CG  ASN A   8      13.861   5.136  18.686  0.00  0.00    +0.222 C 
ATOM     25  OD1 ASN A   8      13.579   5.612  19.785  0.00  0.00    -0.275 OA
ATOM     26  ND2 ASN A   8      12.946   4.892  17.750  0.00  0.00    -0.329 N 
ATOM     27 HD21 ASN A   8      11.945   5.105  17.934  0.00  0.00    +0.145 HD
ATOM     28 HD22 ASN A   8      13.233   4.489  16.835  0.00  0.00    +0.145 HD
ENDBRANCH  23  24
ENDBRANCH  20  23
ENDBRANCH  18  20
ENDBRANCH  15  16
BRANCH  15  29
ATOM     29  CB  SER A   7      14.903   2.957  23.730  0.00  0.00    +0.166 C 
BRANCH  29  30
ATOM     30  OG  SER A   7      15.283   3.186  25.078  0.00  0.00    -0.380 OA
ATOM     31  H   SER A   7      14.504   3.032  25.670  0.00  0.00    +0.211 HD
ENDBRANCH  29  30
ENDBRANCH  15  29
ENDBRANCH  13  15
ENDBRANCH  10  11
BRANCH  10  32
ATOM     32  CB  SER A   6      18.600   6.807  22.828  0.00  0.00    +0.166 C 
BRANCH  32  33
ATOM     33  OG  SER A   6      19.438   6.115  21.928  0.00  0.00    -0.380 OA
ATOM     34  H   SER A   6      20.303   5.920  22.368  0.00  0.00    +0.211 HD
ENDBRANCH  32  33
ENDBRANCH  10  32
ENDBRANCH   8  10
ENDBRANCH   5   6
ENDBRANCH   3   5
BRANCH   1  35
ATOM     35  CA  THR A   4      22.676   2.884  26.420  0.00  0.00    +0.176 C 
BRANCH  35  37
ATOM     36  C   ASP A   3      23.048   3.448  24.099  0.00  0.00    +0.241 C 
ATOM     37  N   THR A   4      23.531   3.347  25.334  0.00  0.00    -0.295 N 
ATOM     38  H   THR A   4      24.522   3.599  25.526  0.00  0.00    +0.150 HD
ATOM     39  O   ASP A   3      21.884   3.156  23.825  0.00  0.00    -0.273 OA
BRANCH  36  40
ATOM     40  CA  ASP A   3      24.003   3.957  23.016  0.00  0.00    +0.160 C 
BRANCH  40  43
ATOM     41  C   VAL A   2      25.920   2.810  22.023  0.00  0.00    +0.241 C 
ATOM     42  O   VAL A   2      26.730   3.500  22.642  0.00  0.00    -0.273 OA
ATOM     43  N   ASP A   3      24.602   2.938  22.160  0.00  0.00    -0.297 N 
ATOM     44  H   ASP A   3      23.978   2.290  21.639  0.00  0.00    +0.150 HD
BRANCH  41  45
ATOM     45  CA  VAL A   2      26.397   1.742  21.041  0.00  0.00    +0.148 C 
BRANCH  45  47
ATOM     46  C   LEU A   1      26.268   2.839  18.868  0.00  0.00    +0.238 C 
ATOM     47  N   VAL A   2      27.003   2.428  19.897  0.00  0.00    -0.297 N 
ATOM     48  H   VAL A   2      28.029   2.597  19.890  0.00  0.00    +0.150 HD
ATOM     49  O   LEU A   1      25.047   2.664  18.811  0.00  0.00    -0.274 OA
BRANCH  46  50
ATOM     50  CA  LEU A   1      27.004   3.559  17.738  0.00  0.00    +0.145 C 
BRANCH  50  51
ATOM     51  N   LEU A   1      26.674   2.968  16.439  0.00  0.00    -0.238 NA
ATOM     52  H   LEU A   1      26.195   3.558  15.729  0.00  0.00    +0.142 HD
ENDBRANCH  50  51
BRANCH  50  53
ATOM     53  CB  LEU A   1      26.605   5.041  17.758  0.00  0.00    +0.026 C 
BRANCH  53  54
ATOM     54  CG  LEU A   1      26.746   5.779  19.098  0.00  0.00    +0.002 C 
ATOM     55  CD2 LEU A   1      28.222   6.064  19.368  0.00  0.00    +0.000 C 
ATOM     56  CD1 LEU A   1      25.951   7.080  19.066  0.00  0.00    +0.000 C 
ENDBRANCH  53  54
ENDBRANCH  50  53
ENDBRANCH  46  50
ENDBRANCH  45  47
BRANCH  45  57
ATOM     57  CB  VAL A   2      27.422   0.809  21.722  0.00  0.00    +0.027 C 
ATOM     58  CG2 VAL A   2      26.807   0.156  22.960  0.00  0.00    +0.002 C 
ATOM     59  CG1 VAL A   2      27.883  -0.260  20.722  0.00  0.00    +0.002 C 
ENDBRANCH  45  57
ENDBRANCH  41  45
ENDBRANCH  40  43
BRANCH  40  60
ATOM     60  CB  ASP A   3      23.274   4.972  22.128  0.00  0.00    +0.143 C 
BRANCH  60  61
ATOM     61  CG  ASP A   3      22.661   6.107  22.920  0.00  0.00    +0.367 C 
ATOM     62  OD2 ASP A   3      23.049   6.276  24.094  0.00  0.00    -0.246 OA
ATOM     63  OD1 ASP A   3      21.803   6.839  22.368  0.00  0.00    -0.246 OA
ENDBRANCH  60  61
ENDBRANCH  40  60
ENDBRANCH  36  40
ENDBRANCH  35  37
BRANCH  35  64
ATOM     64  CB  THR A   4      23.517   2.322  27.601  0.00  0.00    +0.137 C 
ATOM     65  CG2 THR A   4      24.407   1.165  27.126  0.00  0.00    +0.034 C 
BRANCH  64  66
ATOM     66  OG1 THR A   4      24.348   3.362  28.137  0.00  0.00    -0.382 OA
ATOM     67  HG1 THR A   4      23.778   4.104  28.461  0.00  0.00    +0.210 HD
ENDBRANCH  64  66
ENDBRANCH  35  64
ENDBRANCH   1  35
TORSDOF 29
REMARK  Name = ../refined-set-2016/3lpk/3lpk_pocket.pdb
REMARK  258 active torsions:
REMARK  status: ('A' for Active; 'I' for Inactive)
REMARK    1  A    between atoms: _1  and  _3
REMARK    2  A    between atoms: _3  and  _4
REMARK    3  A    between atoms: _3  and  _6
REMARK    4  A    between atoms: _6  and  _7
REMARK    5  A    between atoms: _7  and  _8
REMARK    6  A    between atoms: _8  and  _9
REMARK    7  A    between atoms: _9  and  _10
REMARK    8  A    between atoms: _14  and  _16
REMARK    9  A    between atoms: _16  and  _17
REMARK   10  A    between atoms: _16  and  _19
REMARK   11  A    between atoms: _19  and  _20
REMARK   12  A    between atoms: _22  and  _24
REMARK   13  A    between atoms: _24  and  _25
REMARK   14  A    between atoms: _27  and  _29
REMARK   15  A    between atoms: _29  and  _30
REMARK   16  A    between atoms: _29  and  _32
REMARK   17  A    between atoms: _32  and  _33
REMARK   18  A    between atoms: _33  and  _34
REMARK   19  A    between atoms: _39  and  _41
REMARK   20  A    between atoms: _41  and  _42
REMARK   21  A    between atoms: _44  and  _46
REMARK   22  A    between atoms: _46  and  _47
REMARK   23  A    between atoms: _46  and  _49
REMARK   24  A    between atoms: _49  and  _50
REMARK   25  A    between atoms: _55  and  _56
REMARK   26  A    between atoms: _58  and  _60
REMARK   27  A    between atoms: _60  and  _61
REMARK   28  A    between atoms: _60  and  _63
REMARK   29  A    between atoms: _63  and  _64
REMARK   30  A    between atoms: _67  and  _69
REMARK   31  A    between atoms: _69  and  _70
REMARK   32  A    between atoms: _69  and  _72
REMARK   33  A    between atoms: _75  and  _77
REMARK   34  A    between atoms: _77  and  _78
REMARK   35  A    between atoms: _77  and  _80
REMARK   36  A    between atoms: _80  and  _81
REMARK   37  A    between atoms: _84  and  _86
REMARK   38  A    between atoms: _86  and  _87
REMARK   39  A    between atoms: _86  and  _89
REMARK   40  A    between atoms: _89  and  _90
REMARK   41  A    between atoms: _93  and  _95
REMARK   42  A    between atoms: _95  and  _96
REMARK   43  A    between atoms: _98  and  _100
REMARK   44  A    between atoms: _100  and  _101
REMARK   45  A    between atoms: _100  and  _103
REMARK   46  A    between atoms: _103  and  _104
REMARK   47  A    between atoms: _106  and  _108
REMARK   48  A    between atoms: _108  and  _109
REMARK   49  A    between atoms: _108  and  _111
REMARK   50  A    between atoms: _111  and  _112
REMARK   51  A    between atoms: _114  and  _116
REMARK   52  A    between atoms: _116  and  _117
REMARK   53  A    between atoms: _116  and  _119
REMARK   54  A    between atoms: _119  and  _120
REMARK   55  A    between atoms: _125  and  _127
REMARK   56  A    between atoms: _127  and  _128
REMARK   57  A    between atoms: _127  and  _130
REMARK   58  A    between atoms: _130  and  _131
REMARK   59  A    between atoms: _136  and  _137
REMARK   60  A    between atoms: _139  and  _141
REMARK   61  A    between atoms: _141  and  _142
REMARK   62  A    between atoms: _141  and  _144
REMARK   63  A    between atoms: _148  and  _149
REMARK   64  A    between atoms: _154  and  _156
REMARK   65  A    between atoms: _156  and  _157
REMARK   66  A    between atoms: _156  and  _159
REMARK   67  A    between atoms: _159  and  _160
REMARK   68  A    between atoms: _165  and  _166
REMARK   69  A    between atoms: _168  and  _170
REMARK   70  A    between atoms: _170  and  _171
REMARK   71  A    between atoms: _170  and  _173
REMARK   72  A    between atoms: _173  and  _174
REMARK   73  A    between atoms: _177  and  _179
REMARK   74  A    between atoms: _179  and  _180
REMARK   75  A    between atoms: _179  and  _182
REMARK   76  A    between atoms: _182  and  _183
REMARK   77  A    between atoms: _183  and  _184
REMARK   78  A    between atoms: _189  and  _191
REMARK   79  A    between atoms: _191  and  _192
REMARK   80  A    between atoms: _194  and  _196
REMARK   81  A    between atoms: _196  and  _197
REMARK   82  A    between atoms: _196  and  _199
REMARK   83  A    between atoms: _199  and  _200
REMARK   84  A    between atoms: _200  and  _201
REMARK   85  A    between atoms: _201  and  _202
REMARK   86  A    between atoms: _202  and  _203
REMARK   87  A    between atoms: _207  and  _209
REMARK   88  A    between atoms: _209  and  _210
REMARK   89  A    between atoms: _209  and  _212
REMARK   90  A    between atoms: _212  and  _213
REMARK   91  A    between atoms: _223  and  _225
REMARK   92  A    between atoms: _225  and  _226
REMARK   93  A    between atoms: _225  and  _228
REMARK   94  A    between atoms: _228  and  _229
REMARK   95  A    between atoms: _232  and  _234
REMARK   96  A    between atoms: _234  and  _235
REMARK   97  A    between atoms: _234  and  _237
REMARK   98  A    between atoms: _237  and  _238
REMARK   99  A    between atoms: _238  and  _239
REMARK  100  A    between atoms: _239  and  _240
REMARK  101  A    between atoms: _240  and  _241
REMARK  102  A    between atoms: _245  and  _247
REMARK  103  A    between atoms: _247  and  _248
REMARK  104  A    between atoms: _247  and  _250
REMARK  105  A    between atoms: _250  and  _251
REMARK  106  A    between atoms: _257  and  _259
REMARK  107  A    between atoms: _259  and  _260
REMARK  108  A    between atoms: _259  and  _262
REMARK  109  A    between atoms: _262  and  _263
REMARK  110  A    between atoms: _269  and  _271
REMARK  111  A    between atoms: _271  and  _272
REMARK  112  A    between atoms: _271  and  _274
REMARK  113  A    between atoms: _274  and  _275
REMARK  114  A    between atoms: _278  and  _280
REMARK  115  A    between atoms: _280  and  _281
REMARK  116  A    between atoms: _280  and  _283
REMARK  117  A    between atoms: _283  and  _284
REMARK  118  A    between atoms: _286  and  _288
REMARK  119  A    between atoms: _288  and  _289
REMARK  120  A    between atoms: _288  and  _291
REMARK  121  A    between atoms: _291  and  _292
REMARK  122  A    between atoms: _302  and  _304
REMARK  123  A    between atoms: _304  and  _305
REMARK  124  A    between atoms: _307  and  _309
REMARK  125  A    between atoms: _309  and  _310
REMARK  126  A    between atoms: _309  and  _312
REMARK  127  A    between atoms: _312  and  _313
REMARK  128  A    between atoms: _316  and  _318
REMARK  129  A    between atoms: _318  and  _319
REMARK  130  A    between atoms: _318  and  _321
REMARK  131  A    between atoms: _321  and  _322
REMARK  132  A    between atoms: _325  and  _327
REMARK  133  A    between atoms: _327  and  _328
REMARK  134  A    between atoms: _330  and  _332
REMARK  135  A    between atoms: _332  and  _333
REMARK  136  A    between atoms: _332  and  _335
REMARK  137  A    between atoms: _335  and  _336
REMARK  138  A    between atoms: _339  and  _341
REMARK  139  A    between atoms: _341  and  _342
REMARK  140  A    between atoms: _345  and  _347
REMARK  141  A    between atoms: _347  and  _348
REMARK  142  A    between atoms: _347  and  _350
REMARK  143  A    between atoms: _350  and  _351
REMARK  144  A    between atoms: _356  and  _357
REMARK  145  A    between atoms: _359  and  _361
REMARK  146  A    between atoms: _361  and  _362
REMARK  147  A    between atoms: _361  and  _364
REMARK  148  A    between atoms: _364  and  _365
REMARK  149  A    between atoms: _365  and  _366
REMARK  150  A    between atoms: _369  and  _371
REMARK  151  A    between atoms: _371  and  _372
REMARK  152  A    between atoms: _371  and  _374
REMARK  153  A    between atoms: _374  and  _375
REMARK  154  A    between atoms: _378  and  _380
REMARK  155  A    between atoms: _380  and  _381
REMARK  156  A    between atoms: _384  and  _386
REMARK  157  A    between atoms: _386  and  _387
REMARK  158  A    between atoms: _386  and  _389
REMARK  159  A    between atoms: _389  and  _390
REMARK  160  A    between atoms: _390  and  _391
REMARK  161  A    between atoms: _391  and  _392
REMARK  162  A    between atoms: _401  and  _403
REMARK  163  A    between atoms: _403  and  _404
REMARK  164  A    between atoms: _403  and  _406
REMARK  165  A    between atoms: _406  and  _407
REMARK  166  A    between atoms: _417  and  _419
REMARK  167  A    between atoms: _419  and  _420
REMARK  168  A    between atoms: _419  and  _422
REMARK  169  A    between atoms: _422  and  _423
REMARK  170  A    between atoms: _428  and  _429
REMARK  171  A    between atoms: _431  and  _433
REMARK  172  A    between atoms: _433  and  _434
REMARK  173  A    between atoms: _433  and  _436
REMARK  174  A    between atoms: _436  and  _437
REMARK  175  A    between atoms: _442  and  _443
REMARK  176  A    between atoms: _445  and  _447
REMARK  177  A    between atoms: _447  and  _448
REMARK  178  A    between atoms: _447  and  _450
REMARK  179  A    between atoms: _450  and  _451
REMARK  180  A    between atoms: _451  and  _452
REMARK  181  A    between atoms: _452  and  _453
REMARK  182  A    between atoms: _453  and  _454
REMARK  183  A    between atoms: _458  and  _460
REMARK  184  A    between atoms: _460  and  _461
REMARK  185  A    between atoms: _460  and  _463
REMARK  186  A    between atoms: _463  and  _464
REMARK  187  A    between atoms: _467  and  _469
REMARK  188  A    between atoms: _469  and  _470
REMARK  189  A    between atoms: _469  and  _472
REMARK  190  A    between atoms: _475  and  _477
REMARK  191  A    between atoms: _477  and  _478
REMARK  192  A    between atoms: _477  and  _480
REMARK  193  A    between atoms: _480  and  _481
REMARK  194  A    between atoms: _484  and  _486
REMARK  195  A    between atoms: _486  and  _487
REMARK  196  A    between atoms: _486  and  _489
REMARK  197  A    between atoms: _489  and  _490
REMARK  198  A    between atoms: _492  and  _494
REMARK  199  A    between atoms: _494  and  _495
REMARK  200  A    between atoms: _497  and  _499
REMARK  201  A    between atoms: _499  and  _500
REMARK  202  A    between atoms: _499  and  _502
REMARK  203  A    between atoms: _502  and  _503
REMARK  204  A    between atoms: _506  and  _508
REMARK  205  A    between atoms: _508  and  _509
REMARK  206  A    between atoms: _508  and  _511
REMARK  207  A    between atoms: _511  and  _512
REMARK  208  A    between atoms: _515  and  _517
REMARK  209  A    between atoms: _517  and  _518
REMARK  210  A    between atoms: _517  and  _520
REMARK  211  A    between atoms: _520  and  _521
REMARK  212  A    between atoms: _526  and  _528
REMARK  213  A    between atoms: _528  and  _529
REMARK  214  A    between atoms: _528  and  _531
REMARK  215  A    between atoms: _531  and  _532
REMARK  216  A    between atoms: _532  and  _533
REMARK  217  A    between atoms: _533  and  _534
REMARK  218  A    between atoms: _543  and  _545
REMARK  219  A    between atoms: _545  and  _546
REMARK  220  A    between atoms: _545  and  _548
REMARK  221  A    between atoms: _548  and  _549
REMARK  222  A    between atoms: _549  and  _550
REMARK  223  A    between atoms: _550  and  _551
REMARK  224  A    between atoms: _560  and  _562
REMARK  225  A    between atoms: _562  and  _563
REMARK  226  A    between atoms: _562  and  _565
REMARK  227  A    between atoms: _565  and  _566
REMARK  228  A    between atoms: _568  and  _570
REMARK  229  A    between atoms: _570  and  _571
REMARK  230  A    between atoms: _570  and  _573
REMARK  231  A    between atoms: _573  and  _574
REMARK  232  A    between atoms: _574  and  _575
REMARK  233  A    between atoms: _580  and  _582
REMARK  234  A    between atoms: _582  and  _583
REMARK  235  A    between atoms: _582  and  _585
REMARK  236  A    between atoms: _585  and  _586
REMARK  237  A    between atoms: _588  and  _590
REMARK  238  A    between atoms: _590  and  _591
REMARK  239  A    between atoms: _590  and  _593
REMARK  240  A    between atoms: _593  and  _594
REMARK  241  A    between atoms: _596  and  _598
REMARK  242  A    between atoms: _598  and  _599
REMARK  243  A    between atoms: _598  and  _601
REMARK  244  A    between atoms: _601  and  _602
REMARK  245  A    between atoms: _605  and  _607
REMARK  246  A    between atoms: _607  and  _608
REMARK  247  A    between atoms: _607  and  _610
REMARK  248  A    between atoms: _610  and  _611
REMARK  249  A    between atoms: _614  and  _616
REMARK  250  A    between atoms: _616  and  _617
REMARK  251  A    between atoms: _616  and  _619
REMARK  252  A    between atoms: _622  and  _624
REMARK  253  A    between atoms: _624  and  _625
REMARK  254  A    between atoms: _627  and  _629
REMARK  255  A    between atoms: _629  and  _630
REMARK  256  A    between atoms: _633  and  _635
REMARK  257  A    between atoms: _635  and  _636
REMARK  258  A    between atoms: _635  and  _638
REMARK                            x       y       z     vdW  Elec       q    Type
REMARK                         _______ _______ _______ _____ _____    ______ ____
ROOT
ATOM      1  CA  THR A   5      20.251  16.860  23.198  0.00  0.00    +0.176 C 
ENDROOT
BRANCH   1   2
ATOM      2  C   THR A   5      21.250  17.334  22.143  0.00  0.00    +0.243 C 
ATOM      3  O   THR A   5      21.261  18.501  21.767  0.00  0.00    -0.273 OA
ATOM      4  N   GLN A   6      22.069  16.404  21.658  0.00  0.00    -0.297 N 
ATOM      5  H   GLN A   6      21.971  15.429  22.005  0.00  0.00    +0.150 HD
BRANCH   4   6
ATOM      6  CA  GLN A   6      23.101  16.686  20.660  0.00  0.00    +0.149 C 
BRANCH   6   7
ATOM      7  C   GLN A   6      22.612  17.082  19.270  0.00  0.00    +0.241 C 
ATOM      8  O   GLN A   6      23.028  18.099  18.721  0.00  0.00    -0.273 OA
ATOM      9  N   GLY A   7      21.747  16.258  18.695  0.00  0.00    -0.295 N 
ATOM     10  H   GLY A   7      21.427  15.409  19.204  0.00  0.00    +0.150 HD
BRANCH   9  11
ATOM     11  CA  GLY A   7      21.244  16.530  17.365  0.00  0.00    +0.176 C 
BRANCH  11  12
ATOM     12  C   GLY A   7      19.946  15.792  17.140  0.00  0.00    +0.243 C 
ATOM     13  O   GLY A   7      19.313  15.343  18.093  0.00  0.00    -0.273 OA
ATOM     14  N   LYS A   8      19.547  15.647  15.884  0.00  0.00    -0.297 N 
ATOM     15  H   LYS A   8      20.129  16.021  15.107  0.00  0.00    +0.150 HD
BRANCH  14  16
ATOM     16  CA  LYS A   8      18.299  14.967  15.594  0.00  0.00    +0.149 C 
BRANCH  16  17
ATOM     17  C   LYS A   8      18.252  14.379  14.200  0.00  0.00    +0.241 C 
ATOM     18  N   TRP A   9      17.269  13.513  13.984  0.00  0.00    -0.298 N 
ATOM     19  H   TRP A   9      16.628  13.267  14.765  0.00  0.00    +0.150 HD
ATOM     20  O   LYS A   8      19.087  14.689  13.347  0.00  0.00    -0.273 OA
BRANCH  18  21
ATOM     21  CA  TRP A   9      17.069  12.902  12.684  0.00  0.00    +0.141 C 
BRANCH  21  22
ATOM     22  C   TRP A   9      15.595  12.612  12.464  0.00  0.00    +0.227 C 
ATOM     23  O   TRP A   9      14.799  12.609  13.400  0.00  0.00    -0.286 OA
ENDBRANCH  21  22
BRANCH  21  24
ATOM     24  CB  TRP A   9      17.901  11.611  12.521  0.00  0.00    +0.056 C 
BRANCH  24  25
ATOM     25  CG  TRP A   9      17.738  10.547  13.586  0.00  0.00    -0.002 A 
ATOM     26  CD1 TRP A   9      18.624  10.247  14.588  0.00  0.00    +0.068 A 
ATOM     27  NE1 TRP A   9      18.148   9.204  15.347  0.00  0.00    -0.352 N 
ATOM     28  HE1 TRP A   9      18.631   8.784  16.167  0.00  0.00    +0.166 HD
ATOM     29  CE2 TRP A   9      16.935   8.807  14.849  0.00  0.00    +0.056 A 
ATOM     30  CZ2 TRP A   9      16.074   7.797  15.282  0.00  0.00    +0.017 A 
ATOM     31  CH2 TRP A   9      14.908   7.617  14.584  0.00  0.00    +0.001 A 
ATOM     32  CZ3 TRP A   9      14.586   8.414  13.475  0.00  0.00    +0.000 A 
ATOM     33  CE3 TRP A   9      15.444   9.423  13.041  0.00  0.00    +0.001 A 
ATOM     34  CD2 TRP A   9      16.643   9.629  13.737  0.00  0.00    +0.013 A 
ENDBRANCH  24  25
ENDBRANCH  21  24
ENDBRANCH  18  21
ENDBRANCH  16  17
BRANCH  16  35
ATOM     35  CB  LYS A   8      17.139  15.946  15.759  0.00  0.00    +0.029 C 
BRANCH  35  36
ATOM     36  CG  LYS A   8      17.277  17.186  14.892  0.00  0.00    +0.000 C 
BRANCH  36  37
ATOM     37  CD  LYS A   8      16.219  18.220  15.229  0.00  0.00    -0.024 C 
BRANCH  37  38
ATOM     38  CE  LYS A   8      16.396  19.476  14.401  0.00  0.00    -0.086 C 
BRANCH  38  39
ATOM     39  NZ  LYS A   8      15.383  20.511  14.755  0.00  0.00    +0.380 N 
ATOM     40  HZ1 LYS A   8      15.482  20.762  15.760  0.00  0.00    -0.089 HD
ATOM     41  HZ2 LYS A   8      14.429  20.134  14.583  0.00  0.00    -0.089 HD
ATOM     42  HZ3 LYS A   8      15.534  21.357  14.169  0.00  0.00    -0.089 HD
ENDBRANCH  38  39
ENDBRANCH  37  38
ENDBRANCH  36  37
ENDBRANCH  35  36
ENDBRANCH  16  35
ENDBRANCH  14  16
ENDBRANCH  11  12
ENDBRANCH   9  11
ENDBRANCH   6   7
BRANCH   6  43
ATOM     43  CB  GLN A   6      24.021  15.473  20.520  0.00  0.00    +0.039 C 
BRANCH  43  44
ATOM     44  CG  GLN A   6      24.997  15.544  19.348  0.00  0.00    +0.087 C 
BRANCH  44  45
ATOM     45  CD  GLN A   6      25.885  16.771  19.398  0.00  0.00    +0.219 C 
ATOM     46  OE1 GLN A   6      26.390  17.138  20.459  0.00  0.00    -0.275 OA
ATOM     47  NE2 GLN A   6      26.094  17.405  18.245  0.00  0.00    -0.329 N 
ATOM     48 HE21 GLN A   6      26.705  18.246  18.217  0.00  0.00    +0.145 HD
ATOM     49 HE22 GLN A   6      25.646  17.059  17.373  0.00  0.00    +0.145 HD
ENDBRANCH  44  45
ENDBRANCH  43  44
ENDBRANCH   6  43
ENDBRANCH   4   6
ENDBRANCH   1   2
BRANCH   1  51
ATOM     50  C   TYR A   4      18.938  15.594  21.630  0.00  0.00    +0.241 C 
ATOM     51  N   THR A   5      19.672  15.611  22.734  0.00  0.00    -0.295 N 
ATOM     52  H   THR A   5      19.833  14.732  23.267  0.00  0.00    +0.150 HD
ATOM     53  O   TYR A   4      18.707  16.611  20.971  0.00  0.00    -0.273 OA
BRANCH  50  54
ATOM     54  CA  TYR A   4      18.390  14.244  21.183  0.00  0.00    +0.153 C 
BRANCH  54  57
ATOM     55  C   PRO A   3      16.313  14.266  19.911  0.00  0.00    +0.241 C 
ATOM     56  O   PRO A   3      15.710  13.642  20.785  0.00  0.00    -0.273 OA
ATOM     57  N   TYR A   4      17.602  14.565  19.998  0.00  0.00    -0.297 N 
ATOM     58  H   TYR A   4      18.065  15.042  19.198  0.00  0.00    +0.150 HD
BRANCH  55  64
ATOM     59  C   VAL A   2      14.822  12.839  17.302  0.00  0.00    +0.244 C 
ATOM     60  N   PRO A   3      14.582  13.736  18.258  0.00  0.00    -0.272 N 
ATOM     61  CD  PRO A   3      13.245  14.163  18.712  0.00  0.00    +0.094 C 
ATOM     62  CG  PRO A   3      13.549  15.435  19.508  0.00  0.00    +0.024 C 
ATOM     63  CB  PRO A   3      14.784  15.979  18.847  0.00  0.00    +0.031 C 
ATOM     64  CA  PRO A   3      15.601  14.711  18.636  0.00  0.00    +0.152 C 
ATOM     65  O   VAL A   2      15.890  12.800  16.693  0.00  0.00    -0.273 OA
BRANCH  59  66
ATOM     66  CA  VAL A   2      13.703  11.867  16.989  0.00  0.00    +0.149 C 
BRANCH  66  69
ATOM     67  C   TYR A   1      11.673  12.302  15.738  0.00  0.00    +0.239 C 
ATOM     68  O   TYR A   1      10.990  12.248  16.757  0.00  0.00    -0.274 OA
ATOM     69  N   VAL A   2      12.992  12.153  15.748  0.00  0.00    -0.297 N 
ATOM     70  H   VAL A   2      13.525  12.241  14.860  0.00  0.00    +0.150 HD
BRANCH  67  71
ATOM     71  CA  TYR A   1      11.025  12.544  14.381  0.00  0.00    +0.149 C 
BRANCH  71  72
ATOM     72  N   TYR A   1      10.066  11.472  14.141  0.00  0.00    -0.238 NA
ATOM     73  H   TYR A   1       9.205  11.428  14.723  0.00  0.00    +0.142 HD
ENDBRANCH  71  72
BRANCH  71  74
ATOM     74  CB  TYR A   1      10.312  13.895  14.365  0.00  0.00    +0.053 C 
BRANCH  74  75
ATOM     75  CG  TYR A   1      11.137  15.025  14.925  0.00  0.00    -0.020 A 
ATOM     76  CD2 TYR A   1      10.658  15.802  15.971  0.00  0.00    -0.001 A 
ATOM     77  CE2 TYR A   1      11.406  16.839  16.490  0.00  0.00    +0.036 A 
ATOM     78  CZ  TYR A   1      12.650  17.111  15.966  0.00  0.00    +0.134 A 
ATOM     79  CE1 TYR A   1      13.150  16.353  14.926  0.00  0.00    +0.036 A 
ATOM     80  CD1 TYR A   1      12.393  15.316  14.411  0.00  0.00    -0.001 A 
BRANCH  78  81
ATOM     81  OH  TYR A   1      13.392  18.150  16.481  0.00  0.00    -0.506 OA
ATOM     82  HH  TYR A   1      14.254  18.210  15.997  0.00  0.00    +0.292 HD
ENDBRANCH  78  81
ENDBRANCH  74  75
ENDBRANCH  71  74
ENDBRANCH  67  71
ENDBRANCH  66  69
BRANCH  66  83
ATOM     83  CB  VAL A   2      14.288  10.451  16.957  0.00  0.00    +0.027 C 
ATOM     84  CG2 VAL A   2      15.038  10.172  18.245  0.00  0.00    +0.002 C 
ATOM     85  CG1 VAL A   2      13.176   9.443  16.741  0.00  0.00    +0.002 C 
ENDBRANCH  66  83
ENDBRANCH  59  66
ENDBRANCH  55  64
ENDBRANCH  54  57
BRANCH  54  86
ATOM     86  CB  TYR A   4      19.574  13.333  20.845  0.00  0.00    +0.055 C 
BRANCH  86  87
ATOM     87  CG  TYR A   4      19.224  12.029  20.167  0.00  0.00    -0.020 A 
ATOM     88  CD2 TYR A   4      19.325  10.817  20.842  0.00  0.00    -0.001 A 
ATOM     89  CE2 TYR A   4      19.066   9.617  20.194  0.00  0.00    +0.036 A 
ATOM     90  CZ  TYR A   4      18.698   9.632  18.859  0.00  0.00    +0.134 A 
ATOM     91  CE1 TYR A   4      18.585  10.820  18.184  0.00  0.00    +0.036 A 
ATOM     92  CD1 TYR A   4      18.846  12.005  18.834  0.00  0.00    -0.001 A 
BRANCH  90  93
ATOM     93  OH  TYR A   4      18.459   8.457  18.184  0.00  0.00    -0.506 OA
ATOM     94  HH  TYR A   4      18.580   7.693  18.802  0.00  0.00    +0.292 HD
ENDBRANCH  90  93
ENDBRANCH  86  87
ENDBRANCH  54  86
ENDBRANCH  50  54
ENDBRANCH   1  51
BRANCH   1  95
ATOM     95  CB  THR A   5      20.985  16.667  24.533  0.00  0.00    +0.137 C 
ATOM     96  CG2 THR A   5      21.417  18.015  25.101  0.00  0.00    +0.034 C 
BRANCH  95  97
ATOM     97  OG1 THR A   5      20.110  16.027  25.469  0.00  0.00    -0.382 OA
ATOM     98  HG1 THR A   5      19.835  15.146  25.112  0.00  0.00    +0.210 HD
ENDBRANCH  95  97
ENDBRANCH   1  95
TORSDOF 36
REMARK  Name = ../refined-set-2016/3lpk/3lpk_pocket.pdb
REMARK  258 active torsions:
REMARK  status: ('A' for Active; 'I' for Inactive)
REMARK    1  A    between atoms: _1  and  _3
REMARK    2  A    between atoms: _3  and  _4
REMARK    3  A    between atoms: _3  and  _6
REMARK    4  A    between atoms: _6  and  _7
REMARK    5  A    between atoms: _7  and  _8
REMARK    6  A    between atoms: _8  and  _9
REMARK    7  A    between atoms: _9  and  _10
REMARK    8  A    between atoms: _14  and  _16
REMARK    9  A    between atoms: _16  and  _17
REMARK   10  A    between atoms: _16  and  _19
REMARK   11  A    between atoms: _19  and  _20
REMARK   12  A    between atoms: _22  and  _24
REMARK   13  A    between atoms: _24  and  _25
REMARK   14  A    between atoms: _27  and  _29
REMARK   15  A    between atoms: _29  and  _30
REMARK   16  A    between atoms: _29  and  _32
REMARK   17  A    between atoms: _32  and  _33
REMARK   18  A    between atoms: _33  and  _34
REMARK   19  A    between atoms: _39  and  _41
REMARK   20  A    between atoms: _41  and  _42
REMARK   21  A    between atoms: _44  and  _46
REMARK   22  A    between atoms: _46  and  _47
REMARK   23  A    between atoms: _46  and  _49
REMARK   24  A    between atoms: _49  and  _50
REMARK   25  A    between atoms: _55  and  _56
REMARK   26  A    between atoms: _58  and  _60
REMARK   27  A    between atoms: _60  and  _61
REMARK   28  A    between atoms: _60  and  _63
REMARK   29  A    between atoms: _63  and  _64
REMARK   30  A    between atoms: _67  and  _69
REMARK   31  A    between atoms: _69  and  _70
REMARK   32  A    between atoms: _69  and  _72
REMARK   33  A    between atoms: _75  and  _77
REMARK   34  A    between atoms: _77  and  _78
REMARK   35  A    between atoms: _77  and  _80
REMARK   36  A    between atoms: _80  and  _81
REMARK   37  A    between atoms: _84  and  _86
REMARK   38  A    between atoms: _86  and  _87
REMARK   39  A    between atoms: _86  and  _89
REMARK   40  A    between atoms: _89  and  _90
REMARK   41  A    between atoms: _93  and  _95
REMARK   42  A    between atoms: _95  and  _96
REMARK   43  A    between atoms: _98  and  _100
REMARK   44  A    between atoms: _100  and  _101
REMARK   45  A    between atoms: _100  and  _103
REMARK   46  A    between atoms: _103  and  _104
REMARK   47  A    between atoms: _106  and  _108
REMARK   48  A    between atoms: _108  and  _109
REMARK   49  A    between atoms: _108  and  _111
REMARK   50  A    between atoms: _111  and  _112
REMARK   51  A    between atoms: _114  and  _116
REMARK   52  A    between atoms: _116  and  _117
REMARK   53  A    between atoms: _116  and  _119
REMARK   54  A    between atoms: _119  and  _120
REMARK   55  A    between atoms: _125  and  _127
REMARK   56  A    between atoms: _127  and  _128
REMARK   57  A    between atoms: _127  and  _130
REMARK   58  A    between atoms: _130  and  _131
REMARK   59  A    between atoms: _136  and  _137
REMARK   60  A    between atoms: _139  and  _141
REMARK   61  A    between atoms: _141  and  _142
REMARK   62  A    between atoms: _141  and  _144
REMARK   63  A    between atoms: _148  and  _149
REMARK   64  A    between atoms: _154  and  _156
REMARK   65  A    between atoms: _156  and  _157
REMARK   66  A    between atoms: _156  and  _159
REMARK   67  A    between atoms: _159  and  _160
REMARK   68  A    between atoms: _165  and  _166
REMARK   69  A    between atoms: _168  and  _170
REMARK   70  A    between atoms: _170  and  _171
REMARK   71  A    between atoms: _170  and  _173
REMARK   72  A    between atoms: _173  and  _174
REMARK   73  A    between atoms: _177  and  _179
REMARK   74  A    between atoms: _179  and  _180
REMARK   75  A    between atoms: _179  and  _182
REMARK   76  A    between atoms: _182  and  _183
REMARK   77  A    between atoms: _183  and  _184
REMARK   78  A    between atoms: _189  and  _191
REMARK   79  A    between atoms: _191  and  _192
REMARK   80  A    between atoms: _194  and  _196
REMARK   81  A    between atoms: _196  and  _197
REMARK   82  A    between atoms: _196  and  _199
REMARK   83  A    between atoms: _199  and  _200
REMARK   84  A    between atoms: _200  and  _201
REMARK   85  A    between atoms: _201  and  _202
REMARK   86  A    between atoms: _202  and  _203
REMARK   87  A    between atoms: _207  and  _209
REMARK   88  A    between atoms: _209  and  _210
REMARK   89  A    between atoms: _209  and  _212
REMARK   90  A    between atoms: _212  and  _213
REMARK   91  A    between atoms: _223  and  _225
REMARK   92  A    between atoms: _225  and  _226
REMARK   93  A    between atoms: _225  and  _228
REMARK   94  A    between atoms: _228  and  _229
REMARK   95  A    between atoms: _232  and  _234
REMARK   96  A    between atoms: _234  and  _235
REMARK   97  A    between atoms: _234  and  _237
REMARK   98  A    between atoms: _237  and  _238
REMARK   99  A    between atoms: _238  and  _239
REMARK  100  A    between atoms: _239  and  _240
REMARK  101  A    between atoms: _240  and  _241
REMARK  102  A    between atoms: _245  and  _247
REMARK  103  A    between atoms: _247  and  _248
REMARK  104  A    between atoms: _247  and  _250
REMARK  105  A    between atoms: _250  and  _251
REMARK  106  A    between atoms: _257  and  _259
REMARK  107  A    between atoms: _259  and  _260
REMARK  108  A    between atoms: _259  and  _262
REMARK  109  A    between atoms: _262  and  _263
REMARK  110  A    between atoms: _269  and  _271
REMARK  111  A    between atoms: _271  and  _272
REMARK  112  A    between atoms: _271  and  _274
REMARK  113  A    between atoms: _274  and  _275
REMARK  114  A    between atoms: _278  and  _280
REMARK  115  A    between atoms: _280  and  _281
REMARK  116  A    between atoms: _280  and  _283
REMARK  117  A    between atoms: _283  and  _284
REMARK  118  A    between atoms: _286  and  _288
REMARK  119  A    between atoms: _288  and  _289
REMARK  120  A    between atoms: _288  and  _291
REMARK  121  A    between atoms: _291  and  _292
REMARK  122  A    between atoms: _302  and  _304
REMARK  123  A    between atoms: _304  and  _305
REMARK  124  A    between atoms: _307  and  _309
REMARK  125  A    between atoms: _309  and  _310
REMARK  126  A    between atoms: _309  and  _312
REMARK  127  A    between atoms: _312  and  _313
REMARK  128  A    between atoms: _316  and  _318
REMARK  129  A    between atoms: _318  and  _319
REMARK  130  A    between atoms: _318  and  _321
REMARK  131  A    between atoms: _321  and  _322
REMARK  132  A    between atoms: _325  and  _327
REMARK  133  A    between atoms: _327  and  _328
REMARK  134  A    between atoms: _330  and  _332
REMARK  135  A    between atoms: _332  and  _333
REMARK  136  A    between atoms: _332  and  _335
REMARK  137  A    between atoms: _335  and  _336
REMARK  138  A    between atoms: _339  and  _341
REMARK  139  A    between atoms: _341  and  _342
REMARK  140  A    between atoms: _345  and  _347
REMARK  141  A    between atoms: _347  and  _348
REMARK  142  A    between atoms: _347  and  _350
REMARK  143  A    between atoms: _350  and  _351
REMARK  144  A    between atoms: _356  and  _357
REMARK  145  A    between atoms: _359  and  _361
REMARK  146  A    between atoms: _361  and  _362
REMARK  147  A    between atoms: _361  and  _364
REMARK  148  A    between atoms: _364  and  _365
REMARK  149  A    between atoms: _365  and  _366
REMARK  150  A    between atoms: _369  and  _371
REMARK  151  A    between atoms: _371  and  _372
REMARK  152  A    between atoms: _371  and  _374
REMARK  153  A    between atoms: _374  and  _375
REMARK  154  A    between atoms: _378  and  _380
REMARK  155  A    between atoms: _380  and  _381
REMARK  156  A    between atoms: _384  and  _386
REMARK  157  A    between atoms: _386  and  _387
REMARK  158  A    between atoms: _386  and  _389
REMARK  159  A    between atoms: _389  and  _390
REMARK  160  A    between atoms: _390  and  _391
REMARK  161  A    between atoms: _391  and  _392
REMARK  162  A    between atoms: _401  and  _403
REMARK  163  A    between atoms: _403  and  _404
REMARK  164  A    between atoms: _403  and  _406
REMARK  165  A    between atoms: _406  and  _407
REMARK  166  A    between atoms: _417  and  _419
REMARK  167  A    between atoms: _419  and  _420
REMARK  168  A    between atoms: _419  and  _422
REMARK  169  A    between atoms: _422  and  _423
REMARK  170  A    between atoms: _428  and  _429
REMARK  171  A    between atoms: _431  and  _433
REMARK  172  A    between atoms: _433  and  _434
REMARK  173  A    between atoms: _433  and  _436
REMARK  174  A    between atoms: _436  and  _437
REMARK  175  A    between atoms: _442  and  _443
REMARK  176  A    between atoms: _445  and  _447
REMARK  177  A    between atoms: _447  and  _448
REMARK  178  A    between atoms: _447  and  _450
REMARK  179  A    between atoms: _450  and  _451
REMARK  180  A    between atoms: _451  and  _452
REMARK  181  A    between atoms: _452  and  _453
REMARK  182  A    between atoms: _453  and  _454
REMARK  183  A    between atoms: _458  and  _460
REMARK  184  A    between atoms: _460  and  _461
REMARK  185  A    between atoms: _460  and  _463
REMARK  186  A    between atoms: _463  and  _464
REMARK  187  A    between atoms: _467  and  _469
REMARK  188  A    between atoms: _469  and  _470
REMARK  189  A    between atoms: _469  and  _472
REMARK  190  A    between atoms: _475  and  _477
REMARK  191  A    between atoms: _477  and  _478
REMARK  192  A    between atoms: _477  and  _480
REMARK  193  A    between atoms: _480  and  _481
REMARK  194  A    between atoms: _484  and  _486
REMARK  195  A    between atoms: _486  and  _487
REMARK  196  A    between atoms: _486  and  _489
REMARK  197  A    between atoms: _489  and  _490
REMARK  198  A    between atoms: _492  and  _494
REMARK  199  A    between atoms: _494  and  _495
REMARK  200  A    between atoms: _497  and  _499
REMARK  201  A    between atoms: _499  and  _500
REMARK  202  A    between atoms: _499  and  _502
REMARK  203  A    between atoms: _502  and  _503
REMARK  204  A    between atoms: _506  and  _508
REMARK  205  A    between atoms: _508  and  _509
REMARK  206  A    between atoms: _508  and  _511
REMARK  207  A    between atoms: _511  and  _512
REMARK  208  A    between atoms: _515  and  _517
REMARK  209  A    between atoms: _517  and  _518
REMARK  210  A    between atoms: _517  and  _520
REMARK  211  A    between atoms: _520  and  _521
REMARK  212  A    between atoms: _526  and  _528
REMARK  213  A    between atoms: _528  and  _529
REMARK  214  A    between atoms: _528  and  _531
REMARK  215  A    between atoms: _531  and  _532
REMARK  216  A    between atoms: _532  and  _533
REMARK  217  A    between atoms: _533  and  _534
REMARK  218  A    between atoms: _543  and  _545
REMARK  219  A    between atoms: _545  and  _546
REMARK  220  A    between atoms: _545  and  _548
REMARK  221  A    between atoms: _548  and  _549
REMARK  222  A    between atoms: _549  and  _550
REMARK  223  A    between atoms: _550  and  _551
REMARK  224  A    between atoms: _560  and  _562
REMARK  225  A    between atoms: _562  and  _563
REMARK  226  A    between atoms: _562  and  _565
REMARK  227  A    between atoms: _565  and  _566
REMARK  228  A    between atoms: _568  and  _570
REMARK  229  A    between atoms: _570  and  _571
REMARK  230  A    between atoms: _570  and  _573
REMARK  231  A    between atoms: _573  and  _574
REMARK  232  A    between atoms: _574  and  _575
REMARK  233  A    between atoms: _580  and  _582
REMARK  234  A    between atoms: _582  and  _583
REMARK  235  A    between atoms: _582  and  _585
REMARK  236  A    between atoms: _585  and  _586
REMARK  237  A    between atoms: _588  and  _590
REMARK  238  A    between atoms: _590  and  _591
REMARK  239  A    between atoms: _590  and  _593
REMARK  240  A    between atoms: _593  and  _594
REMARK  241  A    between atoms: _596  and  _598
REMARK  242  A    between atoms: _598  and  _599
REMARK  243  A    between atoms: _598  and  _601
REMARK  244  A    between atoms: _601  and  _602
REMARK  245  A    between atoms: _605  and  _607
REMARK  246  A    between atoms: _607  and  _608
REMARK  247  A    between atoms: _607  and  _610
REMARK  248  A    between atoms: _610  and  _611
REMARK  249  A    between atoms: _614  and  _616
REMARK  250  A    between atoms: _616  and  _617
REMARK  251  A    between atoms: _616  and  _619
REMARK  252  A    between atoms: _622  and  _624
REMARK  253  A    between atoms: _624  and  _625
REMARK  254  A    between atoms: _627  and  _629
REMARK  255  A    between atoms: _629  and  _630
REMARK  256  A    between atoms: _633  and  _635
REMARK  257  A    between atoms: _635  and  _636
REMARK  258  A    between atoms: _635  and  _638
REMARK                            x       y       z     vdW  Elec       q    Type
REMARK                         _______ _______ _______ _____ _____    ______ ____
ROOT
ATOM      1  CA  PHE A   3      23.617  13.777  14.318  0.00  0.00    +0.153 C 
ENDROOT
BRANCH   1   4
ATOM      2  C   LYS A   2      24.090  16.148  14.497  0.00  0.00    +0.241 C 
ATOM      3  O   LYS A   2      24.425  16.027  15.678  0.00  0.00    -0.273 OA
ATOM      4  N   PHE A   3      23.683  15.123  13.759  0.00  0.00    -0.297 N 
ATOM      5  H   PHE A   3      23.407  15.281  12.769  0.00  0.00    +0.150 HD
BRANCH   2   6
ATOM      6  CA  LYS A   2      24.128  17.512  13.815  0.00  0.00    +0.149 C 
BRANCH   6   9
ATOM      7  C   ASP A   1      21.833  17.478  12.968  0.00  0.00    +0.239 C 
ATOM      8  O   ASP A   1      21.366  17.169  14.063  0.00  0.00    -0.274 OA
ATOM      9  N   LYS A   2      23.134  17.655  12.754  0.00  0.00    -0.297 N 
ATOM     10  H   LYS A   2      23.455  17.904  11.797  0.00  0.00    +0.150 HD
BRANCH   7  11
ATOM     11  CA  ASP A   1      20.918  17.669  11.765  0.00  0.00    +0.156 C 
BRANCH  11  12
ATOM     12  N   ASP A   1      20.265  16.405  11.465  0.00  0.00    -0.238 NA
ATOM     13  H   ASP A   1      19.929  15.810  12.249  0.00  0.00    +0.142 HD
ENDBRANCH  11  12
BRANCH  11  14
ATOM     14  CB  ASP A   1      19.856  18.731  12.071  0.00  0.00    +0.140 C 
BRANCH  14  15
ATOM     15  CG  ASP A   1      20.451  20.101  12.326  0.00  0.00    +0.367 C 
ATOM     16  OD2 ASP A   1      19.706  20.991  12.787  0.00  0.00    -0.246 OA
ATOM     17  OD1 ASP A   1      21.657  20.293  12.063  0.00  0.00    -0.246 OA
ENDBRANCH  14  15
ENDBRANCH  11  14
ENDBRANCH   7  11
ENDBRANCH   6   9
BRANCH   6  18
ATOM     18  CB  LYS A   2      23.933  18.605  14.871  0.00  0.00    +0.029 C 
BRANCH  18  19
ATOM     19  CG  LYS A   2      24.124  20.019  14.350  0.00  0.00    +0.000 C 
BRANCH  19  20
ATOM     20  CD  LYS A   2      23.827  21.041  15.433  0.00  0.00    -0.024 C 
BRANCH  20  21
ATOM     21  CE  LYS A   2      23.907  22.458  14.890  0.00  0.00    -0.086 C 
BRANCH  21  22
ATOM     22  NZ  LYS A   2      23.572  23.468  15.936  0.00  0.00    +0.380 N 
ATOM     23  HZ1 LYS A   2      24.241  23.381  16.727  0.00  0.00    -0.089 HD
ATOM     24  HZ2 LYS A   2      22.604  23.302  16.279  0.00  0.00    -0.089 HD
ATOM     25  HZ3 LYS A   2      23.637  24.422  15.528  0.00  0.00    -0.089 HD
ENDBRANCH  21  22
ENDBRANCH  20  21
ENDBRANCH  19  20
ENDBRANCH  18  19
ENDBRANCH   6  18
ENDBRANCH   2   6
ENDBRANCH   1   4
BRANCH   1  26
ATOM     26  C   PHE A   3      24.872  13.000  13.940  0.00  0.00    +0.241 C 
ATOM     27  O   PHE A   3      25.658  12.603  14.808  0.00  0.00    -0.273 OA
ATOM     28  N   PHE A   4      25.060  12.780  12.641  0.00  0.00    -0.297 N 
ATOM     29  H   PHE A   4      24.361  13.126  11.953  0.00  0.00    +0.150 HD
BRANCH  28  30
ATOM     30  CA  PHE A   4      26.236  12.059  12.176  0.00  0.00    +0.153 C 
BRANCH  30  31
ATOM     31  C   PHE A   4      27.484  12.897  12.419  0.00  0.00    +0.241 C 
ATOM     32  N   ILE A   5      28.572  12.223  12.768  0.00  0.00    -0.298 N 
ATOM     33  H   ILE A   5      28.523  11.186  12.836  0.00  0.00    +0.150 HD
ATOM     34  O   PHE A   4      27.458  14.126  12.301  0.00  0.00    -0.273 OA
BRANCH  32  35
ATOM     35  CA  ILE A   5      29.832  12.891  13.058  0.00  0.00    +0.137 C 
BRANCH  35  36
ATOM     36  C   ILE A   5      30.872  12.585  11.991  0.00  0.00    +0.227 C 
ATOM     37  O   ILE A   5      31.094  11.428  11.637  0.00  0.00    -0.286 OA
ENDBRANCH  35  36
BRANCH  35  38
ATOM     38  CB  ILE A   5      30.375  12.444  14.433  0.00  0.00    +0.026 C 
ATOM     39  CG2 ILE A   5      31.661  13.193  14.758  0.00  0.00    +0.002 C 
BRANCH  38  40
ATOM     40  CG1 ILE A   5      29.322  12.697  15.514  0.00  0.00    +0.002 C 
ATOM     41  CD1 ILE A   5      29.713  12.165  16.877  0.00  0.00    +0.000 C 
ENDBRANCH  38  40
ENDBRANCH  35  38
ENDBRANCH  32  35
ENDBRANCH  30  31
BRANCH  30  42
ATOM     42  CB  PHE A   4      26.105  11.718  10.692  0.00  0.00    +0.055 C 
BRANCH  42  43
ATOM     43  CG  PHE A   4      24.982  10.765  10.395  0.00  0.00    -0.020 A 
ATOM     44  CD2 PHE A   4      25.009   9.471  10.891  0.00  0.00    -0.004 A 
ATOM     45  CE2 PHE A   4      23.963   8.594  10.640  0.00  0.00    -0.000 A 
ATOM     46  CZ  PHE A   4      22.881   9.008   9.888  0.00  0.00    -0.000 A 
ATOM     47  CE1 PHE A   4      22.845  10.298   9.387  0.00  0.00    -0.000 A 
ATOM     48  CD1 PHE A   4      23.893  11.168   9.643  0.00  0.00    -0.004 A 
ENDBRANCH  42  43
ENDBRANCH  30  42
ENDBRANCH  28  30
ENDBRANCH   1  26
BRANCH   1  49
ATOM     49  CB  PHE A   3      22.378  13.042  13.800  0.00  0.00    +0.055 C 
BRANCH  49  50
ATOM     50  CG  PHE A   3      22.234  11.646  14.343  0.00  0.00    -0.020 A 
ATOM     51  CD2 PHE A   3      21.927  11.436  15.675  0.00  0.00    -0.004 A 
ATOM     52  CE2 PHE A   3      21.808  10.147  16.183  0.00  0.00    -0.000 A 
ATOM     53  CZ  PHE A   3      21.998   9.058  15.353  0.00  0.00    -0.000 A 
ATOM     54  CE1 PHE A   3      22.305   9.254  14.023  0.00  0.00    -0.000 A 
ATOM     55  CD1 PHE A   3      22.422  10.543  13.520  0.00  0.00    -0.004 A 
ENDBRANCH  49  50
ENDBRANCH   1  49
TORSDOF 23
REMARK  Name = ../refined-set-2016/3lpk/3lpk_pocket.pdb
REMARK  258 active torsions:
REMARK  status: ('A' for Active; 'I' for Inactive)
REMARK    1  A    between atoms: _1  and  _3
REMARK    2  A    between atoms: _3  and  _4
REMARK    3  A    between atoms: _3  and  _6
REMARK    4  A    between atoms: _6  and  _7
REMARK    5  A    between atoms: _7  and  _8
REMARK    6  A    between atoms: _8  and  _9
REMARK    7  A    between atoms: _9  and  _10
REMARK    8  A    between atoms: _14  and  _16
REMARK    9  A    between atoms: _16  and  _17
REMARK   10  A    between atoms: _16  and  _19
REMARK   11  A    between atoms: _19  and  _20
REMARK   12  A    between atoms: _22  and  _24
REMARK   13  A    between atoms: _24  and  _25
REMARK   14  A    between atoms: _27  and  _29
REMARK   15  A    between atoms: _29  and  _30
REMARK   16  A    between atoms: _29  and  _32
REMARK   17  A    between atoms: _32  and  _33
REMARK   18  A    between atoms: _33  and  _34
REMARK   19  A    between atoms: _39  and  _41
REMARK   20  A    between atoms: _41  and  _42
REMARK   21  A    between atoms: _44  and  _46
REMARK   22  A    between atoms: _46  and  _47
REMARK   23  A    between atoms: _46  and  _49
REMARK   24  A    between atoms: _49  and  _50
REMARK   25  A    between atoms: _55  and  _56
REMARK   26  A    between atoms: _58  and  _60
REMARK   27  A    between atoms: _60  and  _61
REMARK   28  A    between atoms: _60  and  _63
REMARK   29  A    between atoms: _63  and  _64
REMARK   30  A    between atoms: _67  and  _69
REMARK   31  A    between atoms: _69  and  _70
REMARK   32  A    between atoms: _69  and  _72
REMARK   33  A    between atoms: _75  and  _77
REMARK   34  A    between atoms: _77  and  _78
REMARK   35  A    between atoms: _77  and  _80
REMARK   36  A    between atoms: _80  and  _81
REMARK   37  A    between atoms: _84  and  _86
REMARK   38  A    between atoms: _86  and  _87
REMARK   39  A    between atoms: _86  and  _89
REMARK   40  A    between atoms: _89  and  _90
REMARK   41  A    between atoms: _93  and  _95
REMARK   42  A    between atoms: _95  and  _96
REMARK   43  A    between atoms: _98  and  _100
REMARK   44  A    between atoms: _100  and  _101
REMARK   45  A    between atoms: _100  and  _103
REMARK   46  A    between atoms: _103  and  _104
REMARK   47  A    between atoms: _106  and  _108
REMARK   48  A    between atoms: _108  and  _109
REMARK   49  A    between atoms: _108  and  _111
REMARK   50  A    between atoms: _111  and  _112
REMARK   51  A    between atoms: _114  and  _116
REMARK   52  A    between atoms: _116  and  _117
REMARK   53  A    between atoms: _116  and  _119
REMARK   54  A    between atoms: _119  and  _120
REMARK   55  A    between atoms: _125  and  _127
REMARK   56  A    between atoms: _127  and  _128
REMARK   57  A    between atoms: _127  and  _130
REMARK   58  A    between atoms: _130  and  _131
REMARK   59  A    between atoms: _136  and  _137
REMARK   60  A    between atoms: _139  and  _141
REMARK   61  A    between atoms: _141  and  _142
REMARK   62  A    between atoms: _141  and  _144
REMARK   63  A    between atoms: _148  and  _149
REMARK   64  A    between atoms: _154  and  _156
REMARK   65  A    between atoms: _156  and  _157
REMARK   66  A    between atoms: _156  and  _159
REMARK   67  A    between atoms: _159  and  _160
REMARK   68  A    between atoms: _165  and  _166
REMARK   69  A    between atoms: _168  and  _170
REMARK   70  A    between atoms: _170  and  _171
REMARK   71  A    between atoms: _170  and  _173
REMARK   72  A    between atoms: _173  and  _174
REMARK   73  A    between atoms: _177  and  _179
REMARK   74  A    between atoms: _179  and  _180
REMARK   75  A    between atoms: _179  and  _182
REMARK   76  A    between atoms: _182  and  _183
REMARK   77  A    between atoms: _183  and  _184
REMARK   78  A    between atoms: _189  and  _191
REMARK   79  A    between atoms: _191  and  _192
REMARK   80  A    between atoms: _194  and  _196
REMARK   81  A    between atoms: _196  and  _197
REMARK   82  A    between atoms: _196  and  _199
REMARK   83  A    between atoms: _199  and  _200
REMARK   84  A    between atoms: _200  and  _201
REMARK   85  A    between atoms: _201  and  _202
REMARK   86  A    between atoms: _202  and  _203
REMARK   87  A    between atoms: _207  and  _209
REMARK   88  A    between atoms: _209  and  _210
REMARK   89  A    between atoms: _209  and  _212
REMARK   90  A    between atoms: _212  and  _213
REMARK   91  A    between atoms: _223  and  _225
REMARK   92  A    between atoms: _225  and  _226
REMARK   93  A    between atoms: _225  and  _228
REMARK   94  A    between atoms: _228  and  _229
REMARK   95  A    between atoms: _232  and  _234
REMARK   96  A    between atoms: _234  and  _235
REMARK   97  A    between atoms: _234  and  _237
REMARK   98  A    between atoms: _237  and  _238
REMARK   99  A    between atoms: _238  and  _239
REMARK  100  A    between atoms: _239  and  _240
REMARK  101  A    between atoms: _240  and  _241
REMARK  102  A    between atoms: _245  and  _247
REMARK  103  A    between atoms: _247  and  _248
REMARK  104  A    between atoms: _247  and  _250
REMARK  105  A    between atoms: _250  and  _251
REMARK  106  A    between atoms: _257  and  _259
REMARK  107  A    between atoms: _259  and  _260
REMARK  108  A    between atoms: _259  and  _262
REMARK  109  A    between atoms: _262  and  _263
REMARK  110  A    between atoms: _269  and  _271
REMARK  111  A    between atoms: _271  and  _272
REMARK  112  A    between atoms: _271  and  _274
REMARK  113  A    between atoms: _274  and  _275
REMARK  114  A    between atoms: _278  and  _280
REMARK  115  A    between atoms: _280  and  _281
REMARK  116  A    between atoms: _280  and  _283
REMARK  117  A    between atoms: _283  and  _284
REMARK  118  A    between atoms: _286  and  _288
REMARK  119  A    between atoms: _288  and  _289
REMARK  120  A    between atoms: _288  and  _291
REMARK  121  A    between atoms: _291  and  _292
REMARK  122  A    between atoms: _302  and  _304
REMARK  123  A    between atoms: _304  and  _305
REMARK  124  A    between atoms: _307  and  _309
REMARK  125  A    between atoms: _309  and  _310
REMARK  126  A    between atoms: _309  and  _312
REMARK  127  A    between atoms: _312  and  _313
REMARK  128  A    between atoms: _316  and  _318
REMARK  129  A    between atoms: _318  and  _319
REMARK  130  A    between atoms: _318  and  _321
REMARK  131  A    between atoms: _321  and  _322
REMARK  132  A    between atoms: _325  and  _327
REMARK  133  A    between atoms: _327  and  _328
REMARK  134  A    between atoms: _330  and  _332
REMARK  135  A    between atoms: _332  and  _333
REMARK  136  A    between atoms: _332  and  _335
REMARK  137  A    between atoms: _335  and  _336
REMARK  138  A    between atoms: _339  and  _341
REMARK  139  A    between atoms: _341  and  _342
REMARK  140  A    between atoms: _345  and  _347
REMARK  141  A    between atoms: _347  and  _348
REMARK  142  A    between atoms: _347  and  _350
REMARK  143  A    between atoms: _350  and  _351
REMARK  144  A    between atoms: _356  and  _357
REMARK  145  A    between atoms: _359  and  _361
REMARK  146  A    between atoms: _361  and  _362
REMARK  147  A    between atoms: _361  and  _364
REMARK  148  A    between atoms: _364  and  _365
REMARK  149  A    between atoms: _365  and  _366
REMARK  150  A    between atoms: _369  and  _371
REMARK  151  A    between atoms: _371  and  _372
REMARK  152  A    between atoms: _371  and  _374
REMARK  153  A    between atoms: _374  and  _375
REMARK  154  A    between atoms: _378  and  _380
REMARK  155  A    between atoms: _380  and  _381
REMARK  156  A    between atoms: _384  and  _386
REMARK  157  A    between atoms: _386  and  _387
REMARK  158  A    between atoms: _386  and  _389
REMARK  159  A    between atoms: _389  and  _390
REMARK  160  A    between atoms: _390  and  _391
REMARK  161  A    between atoms: _391  and  _392
REMARK  162  A    between atoms: _401  and  _403
REMARK  163  A    between atoms: _403  and  _404
REMARK  164  A    between atoms: _403  and  _406
REMARK  165  A    between atoms: _406  and  _407
REMARK  166  A    between atoms: _417  and  _419
REMARK  167  A    between atoms: _419  and  _420
REMARK  168  A    between atoms: _419  and  _422
REMARK  169  A    between atoms: _422  and  _423
REMARK  170  A    between atoms: _428  and  _429
REMARK  171  A    between atoms: _431  and  _433
REMARK  172  A    between atoms: _433  and  _434
REMARK  173  A    between atoms: _433  and  _436
REMARK  174  A    between atoms: _436  and  _437
REMARK  175  A    between atoms: _442  and  _443
REMARK  176  A    between atoms: _445  and  _447
REMARK  177  A    between atoms: _447  and  _448
REMARK  178  A    between atoms: _447  and  _450
REMARK  179  A    between atoms: _450  and  _451
REMARK  180  A    between atoms: _451  and  _452
REMARK  181  A    between atoms: _452  and  _453
REMARK  182  A    between atoms: _453  and  _454
REMARK  183  A    between atoms: _458  and  _460
REMARK  184  A    between atoms: _460  and  _461
REMARK  185  A    between atoms: _460  and  _463
REMARK  186  A    between atoms: _463  and  _464
REMARK  187  A    between atoms: _467  and  _469
REMARK  188  A    between atoms: _469  and  _470
REMARK  189  A    between atoms: _469  and  _472
REMARK  190  A    between atoms: _475  and  _477
REMARK  191  A    between atoms: _477  and  _478
REMARK  192  A    between atoms: _477  and  _480
REMARK  193  A    between atoms: _480  and  _481
REMARK  194  A    between atoms: _484  and  _486
REMARK  195  A    between atoms: _486  and  _487
REMARK  196  A    between atoms: _486  and  _489
REMARK  197  A    between atoms: _489  and  _490
REMARK  198  A    between atoms: _492  and  _494
REMARK  199  A    between atoms: _494  and  _495
REMARK  200  A    between atoms: _497  and  _499
REMARK  201  A    between atoms: _499  and  _500
REMARK  202  A    between atoms: _499  and  _502
REMARK  203  A    between atoms: _502  and  _503
REMARK  204  A    between atoms: _506  and  _508
REMARK  205  A    between atoms: _508  and  _509
REMARK  206  A    between atoms: _508  and  _511
REMARK  207  A    between atoms: _511  and  _512
REMARK  208  A    between atoms: _515  and  _517
REMARK  209  A    between atoms: _517  and  _518
REMARK  210  A    between atoms: _517  and  _520
REMARK  211  A    between atoms: _520  and  _521
REMARK  212  A    between atoms: _526  and  _528
REMARK  213  A    between atoms: _528  and  _529
REMARK  214  A    between atoms: _528  and  _531
REMARK  215  A    between atoms: _531  and  _532
REMARK  216  A    between atoms: _532  and  _533
REMARK  217  A    between atoms: _533  and  _534
REMARK  218  A    between atoms: _543  and  _545
REMARK  219  A    between atoms: _545  and  _546
REMARK  220  A    between atoms: _545  and  _548
REMARK  221  A    between atoms: _548  and  _549
REMARK  222  A    between atoms: _549  and  _550
REMARK  223  A    between atoms: _550  and  _551
REMARK  224  A    between atoms: _560  and  _562
REMARK  225  A    between atoms: _562  and  _563
REMARK  226  A    between atoms: _562  and  _565
REMARK  227  A    between atoms: _565  and  _566
REMARK  228  A    between atoms: _568  and  _570
REMARK  229  A    between atoms: _570  and  _571
REMARK  230  A    between atoms: _570  and  _573
REMARK  231  A    between atoms: _573  and  _574
REMARK  232  A    between atoms: _574  and  _575
REMARK  233  A    between atoms: _580  and  _582
REMARK  234  A    between atoms: _582  and  _583
REMARK  235  A    between atoms: _582  and  _585
REMARK  236  A    between atoms: _585  and  _586
REMARK  237  A    between atoms: _588  and  _590
REMARK  238  A    between atoms: _590  and  _591
REMARK  239  A    between atoms: _590  and  _593
REMARK  240  A    between atoms: _593  and  _594
REMARK  241  A    between atoms: _596  and  _598
REMARK  242  A    between atoms: _598  and  _599
REMARK  243  A    between atoms: _598  and  _601
REMARK  244  A    between atoms: _601  and  _602
REMARK  245  A    between atoms: _605  and  _607
REMARK  246  A    between atoms: _607  and  _608
REMARK  247  A    between atoms: _607  and  _610
REMARK  248  A    between atoms: _610  and  _611
REMARK  249  A    between atoms: _614  and  _616
REMARK  250  A    between atoms: _616  and  _617
REMARK  251  A    between atoms: _616  and  _619
REMARK  252  A    between atoms: _622  and  _624
REMARK  253  A    between atoms: _624  and  _625
REMARK  254  A    between atoms: _627  and  _629
REMARK  255  A    between atoms: _629  and  _630
REMARK  256  A    between atoms: _633  and  _635
REMARK  257  A    between atoms: _635  and  _636
REMARK  258  A    between atoms: _635  and  _638
REMARK                            x       y       z     vdW  Elec       q    Type
REMARK                         _______ _______ _______ _____ _____    ______ ____
ROOT
ATOM      1  CA  SER A   1      33.408   8.746  13.421  0.00  0.00    +0.163 C 
ENDROOT
BRANCH   1   2
ATOM      2  N   SER A   1      33.733   9.673  12.335  0.00  0.00    -0.237 NA
ATOM      3  H   SER A   1      32.987  10.295  11.962  0.00  0.00    +0.142 HD
ENDBRANCH   1   2
BRANCH   1   4
ATOM      4  CB  SER A   1      33.400   7.289  12.965  0.00  0.00    +0.227 C 
ATOM      5  OG  SER A   1      33.594   6.371  13.766  0.00  0.00    -0.287 OA
ENDBRANCH   1   4
BRANCH   1   6
ATOM      6  C   SER A   1      32.031   9.073  13.987  0.00  0.00    +0.162 C 
BRANCH   6   7
ATOM      7  O   SER A   1      31.032   8.708  13.047  0.00  0.00    -0.380 OA
ATOM      8  H   SER A   1      30.139   8.921  13.417  0.00  0.00    +0.211 HD
ENDBRANCH   6   7
ENDBRANCH   1   6
TORSDOF 4
REMARK  Name = ../refined-set-2016/3lpk/3lpk_pocket.pdb
REMARK  258 active torsions:
REMARK  status: ('A' for Active; 'I' for Inactive)
REMARK    1  A    between atoms: _1  and  _3
REMARK    2  A    between atoms: _3  and  _4
REMARK    3  A    between atoms: _3  and  _6
REMARK    4  A    between atoms: _6  and  _7
REMARK    5  A    between atoms: _7  and  _8
REMARK    6  A    between atoms: _8  and  _9
REMARK    7  A    between atoms: _9  and  _10
REMARK    8  A    between atoms: _14  and  _16
REMARK    9  A    between atoms: _16  and  _17
REMARK   10  A    between atoms: _16  and  _19
REMARK   11  A    between atoms: _19  and  _20
REMARK   12  A    between atoms: _22  and  _24
REMARK   13  A    between atoms: _24  and  _25
REMARK   14  A    between atoms: _27  and  _29
REMARK   15  A    between atoms: _29  and  _30
REMARK   16  A    between atoms: _29  and  _32
REMARK   17  A    between atoms: _32  and  _33
REMARK   18  A    between atoms: _33  and  _34
REMARK   19  A    between atoms: _39  and  _41
REMARK   20  A    between atoms: _41  and  _42
REMARK   21  A    between atoms: _44  and  _46
REMARK   22  A    between atoms: _46  and  _47
REMARK   23  A    between atoms: _46  and  _49
REMARK   24  A    between atoms: _49  and  _50
REMARK   25  A    between atoms: _55  and  _56
REMARK   26  A    between atoms: _58  and  _60
REMARK   27  A    between atoms: _60  and  _61
REMARK   28  A    between atoms: _60  and  _63
REMARK   29  A    between atoms: _63  and  _64
REMARK   30  A    between atoms: _67  and  _69
REMARK   31  A    between atoms: _69  and  _70
REMARK   32  A    between atoms: _69  and  _72
REMARK   33  A    between atoms: _75  and  _77
REMARK   34  A    between atoms: _77  and  _78
REMARK   35  A    between atoms: _77  and  _80
REMARK   36  A    between atoms: _80  and  _81
REMARK   37  A    between atoms: _84  and  _86
REMARK   38  A    between atoms: _86  and  _87
REMARK   39  A    between atoms: _86  and  _89
REMARK   40  A    between atoms: _89  and  _90
REMARK   41  A    between atoms: _93  and  _95
REMARK   42  A    between atoms: _95  and  _96
REMARK   43  A    between atoms: _98  and  _100
REMARK   44  A    between atoms: _100  and  _101
REMARK   45  A    between atoms: _100  and  _103
REMARK   46  A    between atoms: _103  and  _104
REMARK   47  A    between atoms: _106  and  _108
REMARK   48  A    between atoms: _108  and  _109
REMARK   49  A    between atoms: _108  and  _111
REMARK   50  A    between atoms: _111  and  _112
REMARK   51  A    between atoms: _114  and  _116
REMARK   52  A    between atoms: _116  and  _117
REMARK   53  A    between atoms: _116  and  _119
REMARK   54  A    between atoms: _119  and  _120
REMARK   55  A    between atoms: _125  and  _127
REMARK   56  A    between atoms: _127  and  _128
REMARK   57  A    between atoms: _127  and  _130
REMARK   58  A    between atoms: _130  and  _131
REMARK   59  A    between atoms: _136  and  _137
REMARK   60  A    between atoms: _139  and  _141
REMARK   61  A    between atoms: _141  and  _142
REMARK   62  A    between atoms: _141  and  _144
REMARK   63  A    between atoms: _148  and  _149
REMARK   64  A    between atoms: _154  and  _156
REMARK   65  A    between atoms: _156  and  _157
REMARK   66  A    between atoms: _156  and  _159
REMARK   67  A    between atoms: _159  and  _160
REMARK   68  A    between atoms: _165  and  _166
REMARK   69  A    between atoms: _168  and  _170
REMARK   70  A    between atoms: _170  and  _171
REMARK   71  A    between atoms: _170  and  _173
REMARK   72  A    between atoms: _173  and  _174
REMARK   73  A    between atoms: _177  and  _179
REMARK   74  A    between atoms: _179  and  _180
REMARK   75  A    between atoms: _179  and  _182
REMARK   76  A    between atoms: _182  and  _183
REMARK   77  A    between atoms: _183  and  _184
REMARK   78  A    between atoms: _189  and  _191
REMARK   79  A    between atoms: _191  and  _192
REMARK   80  A    between atoms: _194  and  _196
REMARK   81  A    between atoms: _196  and  _197
REMARK   82  A    between atoms: _196  and  _199
REMARK   83  A    between atoms: _199  and  _200
REMARK   84  A    between atoms: _200  and  _201
REMARK   85  A    between atoms: _201  and  _202
REMARK   86  A    between atoms: _202  and  _203
REMARK   87  A    between atoms: _207  and  _209
REMARK   88  A    between atoms: _209  and  _210
REMARK   89  A    between atoms: _209  and  _212
REMARK   90  A    between atoms: _212  and  _213
REMARK   91  A    between atoms: _223  and  _225
REMARK   92  A    between atoms: _225  and  _226
REMARK   93  A    between atoms: _225  and  _228
REMARK   94  A    between atoms: _228  and  _229
REMARK   95  A    between atoms: _232  and  _234
REMARK   96  A    between atoms: _234  and  _235
REMARK   97  A    between atoms: _234  and  _237
REMARK   98  A    between atoms: _237  and  _238
REMARK   99  A    between atoms: _238  and  _239
REMARK  100  A    between atoms: _239  and  _240
REMARK  101  A    between atoms: _240  and  _241
REMARK  102  A    between atoms: _245  and  _247
REMARK  103  A    between atoms: _247  and  _248
REMARK  104  A    between atoms: _247  and  _250
REMARK  105  A    between atoms: _250  and  _251
REMARK  106  A    between atoms: _257  and  _259
REMARK  107  A    between atoms: _259  and  _260
REMARK  108  A    between atoms: _259  and  _262
REMARK  109  A    between atoms: _262  and  _263
REMARK  110  A    between atoms: _269  and  _271
REMARK  111  A    between atoms: _271  and  _272
REMARK  112  A    between atoms: _271  and  _274
REMARK  113  A    between atoms: _274  and  _275
REMARK  114  A    between atoms: _278  and  _280
REMARK  115  A    between atoms: _280  and  _281
REMARK  116  A    between atoms: _280  and  _283
REMARK  117  A    between atoms: _283  and  _284
REMARK  118  A    between atoms: _286  and  _288
REMARK  119  A    between atoms: _288  and  _289
REMARK  120  A    between atoms: _288  and  _291
REMARK  121  A    between atoms: _291  and  _292
REMARK  122  A    between atoms: _302  and  _304
REMARK  123  A    between atoms: _304  and  _305
REMARK  124  A    between atoms: _307  and  _309
REMARK  125  A    between atoms: _309  and  _310
REMARK  126  A    between atoms: _309  and  _312
REMARK  127  A    between atoms: _312  and  _313
REMARK  128  A    between atoms: _316  and  _318
REMARK  129  A    between atoms: _318  and  _319
REMARK  130  A    between atoms: _318  and  _321
REMARK  131  A    between atoms: _321  and  _322
REMARK  132  A    between atoms: _325  and  _327
REMARK  133  A    between atoms: _327  and  _328
REMARK  134  A    between atoms: _330  and  _332
REMARK  135  A    between atoms: _332  and  _333
REMARK  136  A    between atoms: _332  and  _335
REMARK  137  A    between atoms: _335  and  _336
REMARK  138  A    between atoms: _339  and  _341
REMARK  139  A    between atoms: _341  and  _342
REMARK  140  A    between atoms: _345  and  _347
REMARK  141  A    between atoms: _347  and  _348
REMARK  142  A    between atoms: _347  and  _350
REMARK  143  A    between atoms: _350  and  _351
REMARK  144  A    between atoms: _356  and  _357
REMARK  145  A    between atoms: _359  and  _361
REMARK  146  A    between atoms: _361  and  _362
REMARK  147  A    between atoms: _361  and  _364
REMARK  148  A    between atoms: _364  and  _365
REMARK  149  A    between atoms: _365  and  _366
REMARK  150  A    between atoms: _369  and  _371
REMARK  151  A    between atoms: _371  and  _372
REMARK  152  A    between atoms: _371  and  _374
REMARK  153  A    between atoms: _374  and  _375
REMARK  154  A    between atoms: _378  and  _380
REMARK  155  A    between atoms: _380  and  _381
REMARK  156  A    between atoms: _384  and  _386
REMARK  157  A    between atoms: _386  and  _387
REMARK  158  A    between atoms: _386  and  _389
REMARK  159  A    between atoms: _389  and  _390
REMARK  160  A    between atoms: _390  and  _391
REMARK  161  A    between atoms: _391  and  _392
REMARK  162  A    between atoms: _401  and  _403
REMARK  163  A    between atoms: _403  and  _404
REMARK  164  A    between atoms: _403  and  _406
REMARK  165  A    between atoms: _406  and  _407
REMARK  166  A    between atoms: _417  and  _419
REMARK  167  A    between atoms: _419  and  _420
REMARK  168  A    between atoms: _419  and  _422
REMARK  169  A    between atoms: _422  and  _423
REMARK  170  A    between atoms: _428  and  _429
REMARK  171  A    between atoms: _431  and  _433
REMARK  172  A    between atoms: _433  and  _434
REMARK  173  A    between atoms: _433  and  _436
REMARK  174  A    between atoms: _436  and  _437
REMARK  175  A    between atoms: _442  and  _443
REMARK  176  A    between atoms: _445  and  _447
REMARK  177  A    between atoms: _447  and  _448
REMARK  178  A    between atoms: _447  and  _450
REMARK  179  A    between atoms: _450  and  _451
REMARK  180  A    between atoms: _451  and  _452
REMARK  181  A    between atoms: _452  and  _453
REMARK  182  A    between atoms: _453  and  _454
REMARK  183  A    between atoms: _458  and  _460
REMARK  184  A    between atoms: _460  and  _461
REMARK  185  A    between atoms: _460  and  _463
REMARK  186  A    between atoms: _463  and  _464
REMARK  187  A    between atoms: _467  and  _469
REMARK  188  A    between atoms: _469  and  _470
REMARK  189  A    between atoms: _469  and  _472
REMARK  190  A    between atoms: _475  and  _477
REMARK  191  A    between atoms: _477  and  _478
REMARK  192  A    between atoms: _477  and  _480
REMARK  193  A    between atoms: _480  and  _481
REMARK  194  A    between atoms: _484  and  _486
REMARK  195  A    between atoms: _486  and  _487
REMARK  196  A    between atoms: _486  and  _489
REMARK  197  A    between atoms: _489  and  _490
REMARK  198  A    between atoms: _492  and  _494
REMARK  199  A    between atoms: _494  and  _495
REMARK  200  A    between atoms: _497  and  _499
REMARK  201  A    between atoms: _499  and  _500
REMARK  202  A    between atoms: _499  and  _502
REMARK  203  A    between atoms: _502  and  _503
REMARK  204  A    between atoms: _506  and  _508
REMARK  205  A    between atoms: _508  and  _509
REMARK  206  A    between atoms: _508  and  _511
REMARK  207  A    between atoms: _511  and  _512
REMARK  208  A    between atoms: _515  and  _517
REMARK  209  A    between atoms: _517  and  _518
REMARK  210  A    between atoms: _517  and  _520
REMARK  211  A    between atoms: _520  and  _521
REMARK  212  A    between atoms: _526  and  _528
REMARK  213  A    between atoms: _528  and  _529
REMARK  214  A    between atoms: _528  and  _531
REMARK  215  A    between atoms: _531  and  _532
REMARK  216  A    between atoms: _532  and  _533
REMARK  217  A    between atoms: _533  and  _534
REMARK  218  A    between atoms: _543  and  _545
REMARK  219  A    between atoms: _545  and  _546
REMARK  220  A    between atoms: _545  and  _548
REMARK  221  A    between atoms: _548  and  _549
REMARK  222  A    between atoms: _549  and  _550
REMARK  223  A    between atoms: _550  and  _551
REMARK  224  A    between atoms: _560  and  _562
REMARK  225  A    between atoms: _562  and  _563
REMARK  226  A    between atoms: _562  and  _565
REMARK  227  A    between atoms: _565  and  _566
REMARK  228  A    between atoms: _568  and  _570
REMARK  229  A    between atoms: _570  and  _571
REMARK  230  A    between atoms: _570  and  _573
REMARK  231  A    between atoms: _573  and  _574
REMARK  232  A    between atoms: _574  and  _575
REMARK  233  A    between atoms: _580  and  _582
REMARK  234  A    between atoms: _582  and  _583
REMARK  235  A    between atoms: _582  and  _585
REMARK  236  A    between atoms: _585  and  _586
REMARK  237  A    between atoms: _588  and  _590
REMARK  238  A    between atoms: _590  and  _591
REMARK  239  A    between atoms: _590  and  _593
REMARK  240  A    between atoms: _593  and  _594
REMARK  241  A    between atoms: _596  and  _598
REMARK  242  A    between atoms: _598  and  _599
REMARK  243  A    between atoms: _598  and  _601
REMARK  244  A    between atoms: _601  and  _602
REMARK  245  A    between atoms: _605  and  _607
REMARK  246  A    between atoms: _607  and  _608
REMARK  247  A    between atoms: _607  and  _610
REMARK  248  A    between atoms: _610  and  _611
REMARK  249  A    between atoms: _614  and  _616
REMARK  250  A    between atoms: _616  and  _617
REMARK  251  A    between atoms: _616  and  _619
REMARK  252  A    between atoms: _622  and  _624
REMARK  253  A    between atoms: _624  and  _625
REMARK  254  A    between atoms: _627  and  _629
REMARK  255  A    between atoms: _629  and  _630
REMARK  256  A    between atoms: _633  and  _635
REMARK  257  A    between atoms: _635  and  _636
REMARK  258  A    between atoms: _635  and  _638
REMARK                            x       y       z     vdW  Elec       q    Type
REMARK                         _______ _______ _______ _____ _____    ______ ____
ROOT
ATOM      1  CG  TRP A   1      29.182   6.063  14.593  0.00  0.00    -0.002 A 
ATOM      2  CD1 TRP A   1      30.176   6.460  15.443  0.00  0.00    +0.068 A 
ATOM      3  NE1 TRP A   1      29.803   7.602  16.109  0.00  0.00    -0.352 N 
ATOM      4  HE1 TRP A   1      30.377   8.104  16.816  0.00  0.00    +0.166 HD
ATOM      5  CE2 TRP A   1      28.551   7.973  15.691  0.00  0.00    +0.056 A 
ATOM      6  CZ2 TRP A   1      27.758   9.058  16.076  0.00  0.00    +0.017 A 
ATOM      7  CH2 TRP A   1      26.529   9.182  15.487  0.00  0.00    +0.001 A 
ATOM      8  CZ3 TRP A   1      26.079   8.257  14.530  0.00  0.00    +0.000 A 
ATOM      9  CE3 TRP A   1      26.867   7.181  14.146  0.00  0.00    +0.001 A 
ATOM     10  CD2 TRP A   1      28.128   7.027  14.734  0.00  0.00    +0.013 A 
ENDROOT
BRANCH   1  11
ATOM     11  CB  TRP A   1      29.159   4.807  13.763  0.00  0.00    +0.053 C 
BRANCH  11  12
ATOM     12  CA  TRP A   1      29.551   4.894  12.268  0.00  0.00    +0.137 C 
BRANCH  12  13
ATOM     13  N   TRP A   1      30.808   5.608  12.024  0.00  0.00    -0.239 NA
ATOM     14  H   TRP A   1      30.933   6.584  12.362  0.00  0.00    +0.142 HD
ENDBRANCH  12  13
BRANCH  12  15
ATOM     15  C   TRP A   1      28.430   5.502  11.439  0.00  0.00    +0.224 C 
ATOM     16  O   TRP A   1      28.436   6.698  11.126  0.00  0.00    -0.287 OA
ENDBRANCH  12  15
ENDBRANCH  11  12
ENDBRANCH   1  11
TORSDOF 4
REMARK  Name = ../refined-set-2016/3lpk/3lpk_pocket.pdb
REMARK  258 active torsions:
REMARK  status: ('A' for Active; 'I' for Inactive)
REMARK    1  A    between atoms: _1  and  _3
REMARK    2  A    between atoms: _3  and  _4
REMARK    3  A    between atoms: _3  and  _6
REMARK    4  A    between atoms: _6  and  _7
REMARK    5  A    between atoms: _7  and  _8
REMARK    6  A    between atoms: _8  and  _9
REMARK    7  A    between atoms: _9  and  _10
REMARK    8  A    between atoms: _14  and  _16
REMARK    9  A    between atoms: _16  and  _17
REMARK   10  A    between atoms: _16  and  _19
REMARK   11  A    between atoms: _19  and  _20
REMARK   12  A    between atoms: _22  and  _24
REMARK   13  A    between atoms: _24  and  _25
REMARK   14  A    between atoms: _27  and  _29
REMARK   15  A    between atoms: _29  and  _30
REMARK   16  A    between atoms: _29  and  _32
REMARK   17  A    between atoms: _32  and  _33
REMARK   18  A    between atoms: _33  and  _34
REMARK   19  A    between atoms: _39  and  _41
REMARK   20  A    between atoms: _41  and  _42
REMARK   21  A    between atoms: _44  and  _46
REMARK   22  A    between atoms: _46  and  _47
REMARK   23  A    between atoms: _46  and  _49
REMARK   24  A    between atoms: _49  and  _50
REMARK   25  A    between atoms: _55  and  _56
REMARK   26  A    between atoms: _58  and  _60
REMARK   27  A    between atoms: _60  and  _61
REMARK   28  A    between atoms: _60  and  _63
REMARK   29  A    between atoms: _63  and  _64
REMARK   30  A    between atoms: _67  and  _69
REMARK   31  A    between atoms: _69  and  _70
REMARK   32  A    between atoms: _69  and  _72
REMARK   33  A    between atoms: _75  and  _77
REMARK   34  A    between atoms: _77  and  _78
REMARK   35  A    between atoms: _77  and  _80
REMARK   36  A    between atoms: _80  and  _81
REMARK   37  A    between atoms: _84  and  _86
REMARK   38  A    between atoms: _86  and  _87
REMARK   39  A    between atoms: _86  and  _89
REMARK   40  A    between atoms: _89  and  _90
REMARK   41  A    between atoms: _93  and  _95
REMARK   42  A    between atoms: _95  and  _96
REMARK   43  A    between atoms: _98  and  _100
REMARK   44  A    between atoms: _100  and  _101
REMARK   45  A    between atoms: _100  and  _103
REMARK   46  A    between atoms: _103  and  _104
REMARK   47  A    between atoms: _106  and  _108
REMARK   48  A    between atoms: _108  and  _109
REMARK   49  A    between atoms: _108  and  _111
REMARK   50  A    between atoms: _111  and  _112
REMARK   51  A    between atoms: _114  and  _116
REMARK   52  A    between atoms: _116  and  _117
REMARK   53  A    between atoms: _116  and  _119
REMARK   54  A    between atoms: _119  and  _120
REMARK   55  A    between atoms: _125  and  _127
REMARK   56  A    between atoms: _127  and  _128
REMARK   57  A    between atoms: _127  and  _130
REMARK   58  A    between atoms: _130  and  _131
REMARK   59  A    between atoms: _136  and  _137
REMARK   60  A    between atoms: _139  and  _141
REMARK   61  A    between atoms: _141  and  _142
REMARK   62  A    between atoms: _141  and  _144
REMARK   63  A    between atoms: _148  and  _149
REMARK   64  A    between atoms: _154  and  _156
REMARK   65  A    between atoms: _156  and  _157
REMARK   66  A    between atoms: _156  and  _159
REMARK   67  A    between atoms: _159  and  _160
REMARK   68  A    between atoms: _165  and  _166
REMARK   69  A    between atoms: _168  and  _170
REMARK   70  A    between atoms: _170  and  _171
REMARK   71  A    between atoms: _170  and  _173
REMARK   72  A    between atoms: _173  and  _174
REMARK   73  A    between atoms: _177  and  _179
REMARK   74  A    between atoms: _179  and  _180
REMARK   75  A    between atoms: _179  and  _182
REMARK   76  A    between atoms: _182  and  _183
REMARK   77  A    between atoms: _183  and  _184
REMARK   78  A    between atoms: _189  and  _191
REMARK   79  A    between atoms: _191  and  _192
REMARK   80  A    between atoms: _194  and  _196
REMARK   81  A    between atoms: _196  and  _197
REMARK   82  A    between atoms: _196  and  _199
REMARK   83  A    between atoms: _199  and  _200
REMARK   84  A    between atoms: _200  and  _201
REMARK   85  A    between atoms: _201  and  _202
REMARK   86  A    between atoms: _202  and  _203
REMARK   87  A    between atoms: _207  and  _209
REMARK   88  A    between atoms: _209  and  _210
REMARK   89  A    between atoms: _209  and  _212
REMARK   90  A    between atoms: _212  and  _213
REMARK   91  A    between atoms: _223  and  _225
REMARK   92  A    between atoms: _225  and  _226
REMARK   93  A    between atoms: _225  and  _228
REMARK   94  A    between atoms: _228  and  _229
REMARK   95  A    between atoms: _232  and  _234
REMARK   96  A    between atoms: _234  and  _235
REMARK   97  A    between atoms: _234  and  _237
REMARK   98  A    between atoms: _237  and  _238
REMARK   99  A    between atoms: _238  and  _239
REMARK  100  A    between atoms: _239  and  _240
REMARK  101  A    between atoms: _240  and  _241
REMARK  102  A    between atoms: _245  and  _247
REMARK  103  A    between atoms: _247  and  _248
REMARK  104  A    between atoms: _247  and  _250
REMARK  105  A    between atoms: _250  and  _251
REMARK  106  A    between atoms: _257  and  _259
REMARK  107  A    between atoms: _259  and  _260
REMARK  108  A    between atoms: _259  and  _262
REMARK  109  A    between atoms: _262  and  _263
REMARK  110  A    between atoms: _269  and  _271
REMARK  111  A    between atoms: _271  and  _272
REMARK  112  A    between atoms: _271  and  _274
REMARK  113  A    between atoms: _274  and  _275
REMARK  114  A    between atoms: _278  and  _280
REMARK  115  A    between atoms: _280  and  _281
REMARK  116  A    between atoms: _280  and  _283
REMARK  117  A    between atoms: _283  and  _284
REMARK  118  A    between atoms: _286  and  _288
REMARK  119  A    between atoms: _288  and  _289
REMARK  120  A    between atoms: _288  and  _291
REMARK  121  A    between atoms: _291  and  _292
REMARK  122  A    between atoms: _302  and  _304
REMARK  123  A    between atoms: _304  and  _305
REMARK  124  A    between atoms: _307  and  _309
REMARK  125  A    between atoms: _309  and  _310
REMARK  126  A    between atoms: _309  and  _312
REMARK  127  A    between atoms: _312  and  _313
REMARK  128  A    between atoms: _316  and  _318
REMARK  129  A    between atoms: _318  and  _319
REMARK  130  A    between atoms: _318  and  _321
REMARK  131  A    between atoms: _321  and  _322
REMARK  132  A    between atoms: _325  and  _327
REMARK  133  A    between atoms: _327  and  _328
REMARK  134  A    between atoms: _330  and  _332
REMARK  135  A    between atoms: _332  and  _333
REMARK  136  A    between atoms: _332  and  _335
REMARK  137  A    between atoms: _335  and  _336
REMARK  138  A    between atoms: _339  and  _341
REMARK  139  A    between atoms: _341  and  _342
REMARK  140  A    between atoms: _345  and  _347
REMARK  141  A    between atoms: _347  and  _348
REMARK  142  A    between atoms: _347  and  _350
REMARK  143  A    between atoms: _350  and  _351
REMARK  144  A    between atoms: _356  and  _357
REMARK  145  A    between atoms: _359  and  _361
REMARK  146  A    between atoms: _361  and  _362
REMARK  147  A    between atoms: _361  and  _364
REMARK  148  A    between atoms: _364  and  _365
REMARK  149  A    between atoms: _365  and  _366
REMARK  150  A    between atoms: _369  and  _371
REMARK  151  A    between atoms: _371  and  _372
REMARK  152  A    between atoms: _371  and  _374
REMARK  153  A    between atoms: _374  and  _375
REMARK  154  A    between atoms: _378  and  _380
REMARK  155  A    between atoms: _380  and  _381
REMARK  156  A    between atoms: _384  and  _386
REMARK  157  A    between atoms: _386  and  _387
REMARK  158  A    between atoms: _386  and  _389
REMARK  159  A    between atoms: _389  and  _390
REMARK  160  A    between atoms: _390  and  _391
REMARK  161  A    between atoms: _391  and  _392
REMARK  162  A    between atoms: _401  and  _403
REMARK  163  A    between atoms: _403  and  _404
REMARK  164  A    between atoms: _403  and  _406
REMARK  165  A    between atoms: _406  and  _407
REMARK  166  A    between atoms: _417  and  _419
REMARK  167  A    between atoms: _419  and  _420
REMARK  168  A    between atoms: _419  and  _422
REMARK  169  A    between atoms: _422  and  _423
REMARK  170  A    between atoms: _428  and  _429
REMARK  171  A    between atoms: _431  and  _433
REMARK  172  A    between atoms: _433  and  _434
REMARK  173  A    between atoms: _433  and  _436
REMARK  174  A    between atoms: _436  and  _437
REMARK  175  A    between atoms: _442  and  _443
REMARK  176  A    between atoms: _445  and  _447
REMARK  177  A    between atoms: _447  and  _448
REMARK  178  A    between atoms: _447  and  _450
REMARK  179  A    between atoms: _450  and  _451
REMARK  180  A    between atoms: _451  and  _452
REMARK  181  A    between atoms: _452  and  _453
REMARK  182  A    between atoms: _453  and  _454
REMARK  183  A    between atoms: _458  and  _460
REMARK  184  A    between atoms: _460  and  _461
REMARK  185  A    between atoms: _460  and  _463
REMARK  186  A    between atoms: _463  and  _464
REMARK  187  A    between atoms: _467  and  _469
REMARK  188  A    between atoms: _469  and  _470
REMARK  189  A    between atoms: _469  and  _472
REMARK  190  A    between atoms: _475  and  _477
REMARK  191  A    between atoms: _477  and  _478
REMARK  192  A    between atoms: _477  and  _480
REMARK  193  A    between atoms: _480  and  _481
REMARK  194  A    between atoms: _484  and  _486
REMARK  195  A    between atoms: _486  and  _487
REMARK  196  A    between atoms: _486  and  _489
REMARK  197  A    between atoms: _489  and  _490
REMARK  198  A    between atoms: _492  and  _494
REMARK  199  A    between atoms: _494  and  _495
REMARK  200  A    between atoms: _497  and  _499
REMARK  201  A    between atoms: _499  and  _500
REMARK  202  A    between atoms: _499  and  _502
REMARK  203  A    between atoms: _502  and  _503
REMARK  204  A    between atoms: _506  and  _508
REMARK  205  A    between atoms: _508  and  _509
REMARK  206  A    between atoms: _508  and  _511
REMARK  207  A    between atoms: _511  and  _512
REMARK  208  A    between atoms: _515  and  _517
REMARK  209  A    between atoms: _517  and  _518
REMARK  210  A    between atoms: _517  and  _520
REMARK  211  A    between atoms: _520  and  _521
REMARK  212  A    between atoms: _526  and  _528
REMARK  213  A    between atoms: _528  and  _529
REMARK  214  A    between atoms: _528  and  _531
REMARK  215  A    between atoms: _531  and  _532
REMARK  216  A    between atoms: _532  and  _533
REMARK  217  A    between atoms: _533  and  _534
REMARK  218  A    between atoms: _543  and  _545
REMARK  219  A    between atoms: _545  and  _546
REMARK  220  A    between atoms: _545  and  _548
REMARK  221  A    between atoms: _548  and  _549
REMARK  222  A    between atoms: _549  and  _550
REMARK  223  A    between atoms: _550  and  _551
REMARK  224  A    between atoms: _560  and  _562
REMARK  225  A    between atoms: _562  and  _563
REMARK  226  A    between atoms: _562  and  _565
REMARK  227  A    between atoms: _565  and  _566
REMARK  228  A    between atoms: _568  and  _570
REMARK  229  A    between atoms: _570  and  _571
REMARK  230  A    between atoms: _570  and  _573
REMARK  231  A    between atoms: _573  and  _574
REMARK  232  A    between atoms: _574  and  _575
REMARK  233  A    between atoms: _580  and  _582
REMARK  234  A    between atoms: _582  and  _583
REMARK  235  A    between atoms: _582  and  _585
REMARK  236  A    between atoms: _585  and  _586
REMARK  237  A    between atoms: _588  and  _590
REMARK  238  A    between atoms: _590  and  _591
REMARK  239  A    between atoms: _590  and  _593
REMARK  240  A    between atoms: _593  and  _594
REMARK  241  A    between atoms: _596  and  _598
REMARK  242  A    between atoms: _598  and  _599
REMARK  243  A    between atoms: _598  and  _601
REMARK  244  A    between atoms: _601  and  _602
REMARK  245  A    between atoms: _605  and  _607
REMARK  246  A    between atoms: _607  and  _608
REMARK  247  A    between atoms: _607  and  _610
REMARK  248  A    between atoms: _610  and  _611
REMARK  249  A    between atoms: _614  and  _616
REMARK  250  A    between atoms: _616  and  _617
REMARK  251  A    between atoms: _616  and  _619
REMARK  252  A    between atoms: _622  and  _624
REMARK  253  A    between atoms: _624  and  _625
REMARK  254  A    between atoms: _627  and  _629
REMARK  255  A    between atoms: _629  and  _630
REMARK  256  A    between atoms: _633  and  _635
REMARK  257  A    between atoms: _635  and  _636
REMARK  258  A    between atoms: _635  and  _638
REMARK                            x       y       z     vdW  Elec       q    Type
REMARK                         _______ _______ _______ _____ _____    ______ ____
ROOT
ATOM      1  C   GLY A   4      19.263   1.207  22.291  0.00  0.00    +0.243 C 
ATOM      2  N   LEU A   5      20.046   1.004  23.348  0.00  0.00    -0.297 N 
ATOM      3  H   LEU A   5      20.780   1.705  23.573  0.00  0.00    +0.150 HD
ATOM      4  O   GLY A   4      18.348   0.441  21.972  0.00  0.00    -0.273 OA
ENDROOT
BRANCH   1   5
ATOM      5  CA  GLY A   4      19.541   2.453  21.471  0.00  0.00    +0.176 C 
BRANCH   5   8
ATOM      6  C   LEU A   3      21.318   1.659  20.034  0.00  0.00    +0.241 C 
ATOM      7  O   LEU A   3      22.109   1.594  20.985  0.00  0.00    -0.273 OA
ATOM      8  N   GLY A   4      20.060   2.075  20.165  0.00  0.00    -0.295 N 
ATOM      9  H   GLY A   4      19.444   2.130  19.329  0.00  0.00    +0.150 HD
BRANCH   6  10
ATOM     10  CA  LEU A   3      21.764   1.274  18.619  0.00  0.00    +0.149 C 
BRANCH  10  12
ATOM     11  C   ILE A   2      21.919   3.048  16.955  0.00  0.00    +0.241 C 
ATOM     12  N   LEU A   3      22.446   2.394  17.986  0.00  0.00    -0.297 N 
ATOM     13  H   LEU A   3      23.373   2.691  18.351  0.00  0.00    +0.150 HD
ATOM     14  O   ILE A   2      20.838   2.745  16.447  0.00  0.00    -0.273 OA
BRANCH  11  15
ATOM     15  CA  ILE A   2      22.737   4.210  16.414  0.00  0.00    +0.148 C 
BRANCH  15  17
ATOM     16  C   GLY A   1      23.821   4.370  14.254  0.00  0.00    +0.240 C 
ATOM     17  N   ILE A   2      22.709   4.240  14.964  0.00  0.00    -0.297 N 
ATOM     18  H   ILE A   2      21.797   4.158  14.471  0.00  0.00    +0.150 HD
ATOM     19  O   GLY A   1      24.945   4.424  14.762  0.00  0.00    -0.274 OA
BRANCH  16  20
ATOM     20  CA  GLY A   1      23.651   4.426  12.754  0.00  0.00    +0.169 C 
BRANCH  20  21
ATOM     21  N   GLY A   1      24.939   4.612  12.111  0.00  0.00    -0.236 NA
ATOM     22  H   GLY A   1      25.817   4.515  12.660  0.00  0.00    +0.142 HD
ENDBRANCH  20  21
ENDBRANCH  16  20
ENDBRANCH  15  17
BRANCH  15  23
ATOM     23  CB  ILE A   2      22.176   5.541  16.967  0.00  0.00    +0.027 C 
ATOM     24  CG2 ILE A   2      20.704   5.675  16.568  0.00  0.00    +0.002 C 
BRANCH  23  25
ATOM     25  CG1 ILE A   2      22.335   5.610  18.478  0.00  0.00    +0.002 C 
ATOM     26  CD1 ILE A   2      21.974   6.977  19.058  0.00  0.00    +0.000 C 
ENDBRANCH  23  25
ENDBRANCH  15  23
ENDBRANCH  11  15
ENDBRANCH  10  12
BRANCH  10  27
ATOM     27  CB  LEU A   3      22.688   0.052  18.691  0.00  0.00    +0.029 C 
BRANCH  27  28
ATOM     28  CG  LEU A   3      22.046  -1.190  19.324  0.00  0.00    +0.002 C 
ATOM     29  CD2 LEU A   3      23.068  -2.318  19.413  0.00  0.00    +0.000 C 
ATOM     30  CD1 LEU A   3      20.839  -1.623  18.482  0.00  0.00    +0.000 C 
ENDBRANCH  27  28
ENDBRANCH  10  27
ENDBRANCH   6  10
ENDBRANCH   5   8
ENDBRANCH   1   5
BRANCH   2  31
ATOM     31  CA  LEU A   5      19.907  -0.172  24.202  0.00  0.00    +0.149 C 
BRANCH  31  32
ATOM     32  C   LEU A   5      19.062   0.013  25.463  0.00  0.00    +0.241 C 
ATOM     33  O   LEU A   5      18.917  -0.924  26.251  0.00  0.00    -0.273 OA
ATOM     34  N   ALA A   6      18.508   1.206  25.670  0.00  0.00    -0.297 N 
ATOM     35  H   ALA A   6      18.661   1.977  24.989  0.00  0.00    +0.150 HD
BRANCH  34  36
ATOM     36  CA  ALA A   6      17.684   1.431  26.856  0.00  0.00    +0.149 C 
ATOM     37  CB  ALA A   6      17.619   2.922  27.184  0.00  0.00    +0.031 C 
BRANCH  36  38
ATOM     38  C   ALA A   6      16.272   0.847  26.648  0.00  0.00    +0.241 C 
ATOM     39  N   TYR A   7      15.381   1.063  27.610  0.00  0.00    -0.298 N 
ATOM     40  H   TYR A   7      15.648   1.651  28.426  0.00  0.00    +0.150 HD
ATOM     41  O   ALA A   6      15.992   0.238  25.614  0.00  0.00    -0.273 OA
BRANCH  39  42
ATOM     42  CA  TYR A   7      14.033   0.494  27.550  0.00  0.00    +0.141 C 
BRANCH  42  43
ATOM     43  C   TYR A   7      12.969   1.174  26.682  0.00  0.00    +0.227 C 
ATOM     44  O   TYR A   7      13.094   2.336  26.299  0.00  0.00    -0.286 OA
ENDBRANCH  42  43
BRANCH  42  45
ATOM     45  CB  TYR A   7      13.499   0.322  28.974  0.00  0.00    +0.054 C 
BRANCH  45  46
ATOM     46  CG  TYR A   7      14.409  -0.503  29.866  0.00  0.00    -0.020 A 
ATOM     47  CD2 TYR A   7      15.352   0.108  30.691  0.00  0.00    -0.001 A 
ATOM     48  CE2 TYR A   7      16.174  -0.643  31.516  0.00  0.00    +0.036 A 
ATOM     49  CZ  TYR A   7      16.060  -2.021  31.523  0.00  0.00    +0.134 A 
ATOM     50  CE1 TYR A   7      15.135  -2.651  30.710  0.00  0.00    +0.036 A 
ATOM     51  CD1 TYR A   7      14.318  -1.891  29.889  0.00  0.00    -0.001 A 
BRANCH  49  52
ATOM     52  OH  TYR A   7      16.855  -2.769  32.358  0.00  0.00    -0.506 OA
ATOM     53  HH  TYR A   7      16.284  -3.276  32.988  0.00  0.00    +0.292 HD
ENDBRANCH  49  52
ENDBRANCH  45  46
ENDBRANCH  42  45
ENDBRANCH  39  42
ENDBRANCH  36  38
ENDBRANCH  34  36
ENDBRANCH  31  32
BRANCH  31  54
ATOM     54  CB  LEU A   5      21.299  -0.689  24.594  0.00  0.00    +0.029 C 
BRANCH  54  55
ATOM     55  CG  LEU A   5      22.138  -1.206  23.421  0.00  0.00    +0.002 C 
ATOM     56  CD2 LEU A   5      23.559  -1.489  23.877  0.00  0.00    +0.000 C 
ATOM     57  CD1 LEU A   5      21.488  -2.464  22.858  0.00  0.00    +0.000 C 
ENDBRANCH  54  55
ENDBRANCH  31  54
ENDBRANCH   2  31
TORSDOF 23
REMARK  Name = ../refined-set-2016/3lpk/3lpk_pocket.pdb
REMARK  258 active torsions:
REMARK  status: ('A' for Active; 'I' for Inactive)
REMARK    1  A    between atoms: _1  and  _3
REMARK    2  A    between atoms: _3  and  _4
REMARK    3  A    between atoms: _3  and  _6
REMARK    4  A    between atoms: _6  and  _7
REMARK    5  A    between atoms: _7  and  _8
REMARK    6  A    between atoms: _8  and  _9
REMARK    7  A    between atoms: _9  and  _10
REMARK    8  A    between atoms: _14  and  _16
REMARK    9  A    between atoms: _16  and  _17
REMARK   10  A    between atoms: _16  and  _19
REMARK   11  A    between atoms: _19  and  _20
REMARK   12  A    between atoms: _22  and  _24
REMARK   13  A    between atoms: _24  and  _25
REMARK   14  A    between atoms: _27  and  _29
REMARK   15  A    between atoms: _29  and  _30
REMARK   16  A    between atoms: _29  and  _32
REMARK   17  A    between atoms: _32  and  _33
REMARK   18  A    between atoms: _33  and  _34
REMARK   19  A    between atoms: _39  and  _41
REMARK   20  A    between atoms: _41  and  _42
REMARK   21  A    between atoms: _44  and  _46
REMARK   22  A    between atoms: _46  and  _47
REMARK   23  A    between atoms: _46  and  _49
REMARK   24  A    between atoms: _49  and  _50
REMARK   25  A    between atoms: _55  and  _56
REMARK   26  A    between atoms: _58  and  _60
REMARK   27  A    between atoms: _60  and  _61
REMARK   28  A    between atoms: _60  and  _63
REMARK   29  A    between atoms: _63  and  _64
REMARK   30  A    between atoms: _67  and  _69
REMARK   31  A    between atoms: _69  and  _70
REMARK   32  A    between atoms: _69  and  _72
REMARK   33  A    between atoms: _75  and  _77
REMARK   34  A    between atoms: _77  and  _78
REMARK   35  A    between atoms: _77  and  _80
REMARK   36  A    between atoms: _80  and  _81
REMARK   37  A    between atoms: _84  and  _86
REMARK   38  A    between atoms: _86  and  _87
REMARK   39  A    between atoms: _86  and  _89
REMARK   40  A    between atoms: _89  and  _90
REMARK   41  A    between atoms: _93  and  _95
REMARK   42  A    between atoms: _95  and  _96
REMARK   43  A    between atoms: _98  and  _100
REMARK   44  A    between atoms: _100  and  _101
REMARK   45  A    between atoms: _100  and  _103
REMARK   46  A    between atoms: _103  and  _104
REMARK   47  A    between atoms: _106  and  _108
REMARK   48  A    between atoms: _108  and  _109
REMARK   49  A    between atoms: _108  and  _111
REMARK   50  A    between atoms: _111  and  _112
REMARK   51  A    between atoms: _114  and  _116
REMARK   52  A    between atoms: _116  and  _117
REMARK   53  A    between atoms: _116  and  _119
REMARK   54  A    between atoms: _119  and  _120
REMARK   55  A    between atoms: _125  and  _127
REMARK   56  A    between atoms: _127  and  _128
REMARK   57  A    between atoms: _127  and  _130
REMARK   58  A    between atoms: _130  and  _131
REMARK   59  A    between atoms: _136  and  _137
REMARK   60  A    between atoms: _139  and  _141
REMARK   61  A    between atoms: _141  and  _142
REMARK   62  A    between atoms: _141  and  _144
REMARK   63  A    between atoms: _148  and  _149
REMARK   64  A    between atoms: _154  and  _156
REMARK   65  A    between atoms: _156  and  _157
REMARK   66  A    between atoms: _156  and  _159
REMARK   67  A    between atoms: _159  and  _160
REMARK   68  A    between atoms: _165  and  _166
REMARK   69  A    between atoms: _168  and  _170
REMARK   70  A    between atoms: _170  and  _171
REMARK   71  A    between atoms: _170  and  _173
REMARK   72  A    between atoms: _173  and  _174
REMARK   73  A    between atoms: _177  and  _179
REMARK   74  A    between atoms: _179  and  _180
REMARK   75  A    between atoms: _179  and  _182
REMARK   76  A    between atoms: _182  and  _183
REMARK   77  A    between atoms: _183  and  _184
REMARK   78  A    between atoms: _189  and  _191
REMARK   79  A    between atoms: _191  and  _192
REMARK   80  A    between atoms: _194  and  _196
REMARK   81  A    between atoms: _196  and  _197
REMARK   82  A    between atoms: _196  and  _199
REMARK   83  A    between atoms: _199  and  _200
REMARK   84  A    between atoms: _200  and  _201
REMARK   85  A    between atoms: _201  and  _202
REMARK   86  A    between atoms: _202  and  _203
REMARK   87  A    between atoms: _207  and  _209
REMARK   88  A    between atoms: _209  and  _210
REMARK   89  A    between atoms: _209  and  _212
REMARK   90  A    between atoms: _212  and  _213
REMARK   91  A    between atoms: _223  and  _225
REMARK   92  A    between atoms: _225  and  _226
REMARK   93  A    between atoms: _225  and  _228
REMARK   94  A    between atoms: _228  and  _229
REMARK   95  A    between atoms: _232  and  _234
REMARK   96  A    between atoms: _234  and  _235
REMARK   97  A    between atoms: _234  and  _237
REMARK   98  A    between atoms: _237  and  _238
REMARK   99  A    between atoms: _238  and  _239
REMARK  100  A    between atoms: _239  and  _240
REMARK  101  A    between atoms: _240  and  _241
REMARK  102  A    between atoms: _245  and  _247
REMARK  103  A    between atoms: _247  and  _248
REMARK  104  A    between atoms: _247  and  _250
REMARK  105  A    between atoms: _250  and  _251
REMARK  106  A    between atoms: _257  and  _259
REMARK  107  A    between atoms: _259  and  _260
REMARK  108  A    between atoms: _259  and  _262
REMARK  109  A    between atoms: _262  and  _263
REMARK  110  A    between atoms: _269  and  _271
REMARK  111  A    between atoms: _271  and  _272
REMARK  112  A    between atoms: _271  and  _274
REMARK  113  A    between atoms: _274  and  _275
REMARK  114  A    between atoms: _278  and  _280
REMARK  115  A    between atoms: _280  and  _281
REMARK  116  A    between atoms: _280  and  _283
REMARK  117  A    between atoms: _283  and  _284
REMARK  118  A    between atoms: _286  and  _288
REMARK  119  A    between atoms: _288  and  _289
REMARK  120  A    between atoms: _288  and  _291
REMARK  121  A    between atoms: _291  and  _292
REMARK  122  A    between atoms: _302  and  _304
REMARK  123  A    between atoms: _304  and  _305
REMARK  124  A    between atoms: _307  and  _309
REMARK  125  A    between atoms: _309  and  _310
REMARK  126  A    between atoms: _309  and  _312
REMARK  127  A    between atoms: _312  and  _313
REMARK  128  A    between atoms: _316  and  _318
REMARK  129  A    between atoms: _318  and  _319
REMARK  130  A    between atoms: _318  and  _321
REMARK  131  A    between atoms: _321  and  _322
REMARK  132  A    between atoms: _325  and  _327
REMARK  133  A    between atoms: _327  and  _328
REMARK  134  A    between atoms: _330  and  _332
REMARK  135  A    between atoms: _332  and  _333
REMARK  136  A    between atoms: _332  and  _335
REMARK  137  A    between atoms: _335  and  _336
REMARK  138  A    between atoms: _339  and  _341
REMARK  139  A    between atoms: _341  and  _342
REMARK  140  A    between atoms: _345  and  _347
REMARK  141  A    between atoms: _347  and  _348
REMARK  142  A    between atoms: _347  and  _350
REMARK  143  A    between atoms: _350  and  _351
REMARK  144  A    between atoms: _356  and  _357
REMARK  145  A    between atoms: _359  and  _361
REMARK  146  A    between atoms: _361  and  _362
REMARK  147  A    between atoms: _361  and  _364
REMARK  148  A    between atoms: _364  and  _365
REMARK  149  A    between atoms: _365  and  _366
REMARK  150  A    between atoms: _369  and  _371
REMARK  151  A    between atoms: _371  and  _372
REMARK  152  A    between atoms: _371  and  _374
REMARK  153  A    between atoms: _374  and  _375
REMARK  154  A    between atoms: _378  and  _380
REMARK  155  A    between atoms: _380  and  _381
REMARK  156  A    between atoms: _384  and  _386
REMARK  157  A    between atoms: _386  and  _387
REMARK  158  A    between atoms: _386  and  _389
REMARK  159  A    between atoms: _389  and  _390
REMARK  160  A    between atoms: _390  and  _391
REMARK  161  A    between atoms: _391  and  _392
REMARK  162  A    between atoms: _401  and  _403
REMARK  163  A    between atoms: _403  and  _404
REMARK  164  A    between atoms: _403  and  _406
REMARK  165  A    between atoms: _406  and  _407
REMARK  166  A    between atoms: _417  and  _419
REMARK  167  A    between atoms: _419  and  _420
REMARK  168  A    between atoms: _419  and  _422
REMARK  169  A    between atoms: _422  and  _423
REMARK  170  A    between atoms: _428  and  _429
REMARK  171  A    between atoms: _431  and  _433
REMARK  172  A    between atoms: _433  and  _434
REMARK  173  A    between atoms: _433  and  _436
REMARK  174  A    between atoms: _436  and  _437
REMARK  175  A    between atoms: _442  and  _443
REMARK  176  A    between atoms: _445  and  _447
REMARK  177  A    between atoms: _447  and  _448
REMARK  178  A    between atoms: _447  and  _450
REMARK  179  A    between atoms: _450  and  _451
REMARK  180  A    between atoms: _451  and  _452
REMARK  181  A    between atoms: _452  and  _453
REMARK  182  A    between atoms: _453  and  _454
REMARK  183  A    between atoms: _458  and  _460
REMARK  184  A    between atoms: _460  and  _461
REMARK  185  A    between atoms: _460  and  _463
REMARK  186  A    between atoms: _463  and  _464
REMARK  187  A    between atoms: _467  and  _469
REMARK  188  A    between atoms: _469  and  _470
REMARK  189  A    between atoms: _469  and  _472
REMARK  190  A    between atoms: _475  and  _477
REMARK  191  A    between atoms: _477  and  _478
REMARK  192  A    between atoms: _477  and  _480
REMARK  193  A    between atoms: _480  and  _481
REMARK  194  A    between atoms: _484  and  _486
REMARK  195  A    between atoms: _486  and  _487
REMARK  196  A    between atoms: _486  and  _489
REMARK  197  A    between atoms: _489  and  _490
REMARK  198  A    between atoms: _492  and  _494
REMARK  199  A    between atoms: _494  and  _495
REMARK  200  A    between atoms: _497  and  _499
REMARK  201  A    between atoms: _499  and  _500
REMARK  202  A    between atoms: _499  and  _502
REMARK  203  A    between atoms: _502  and  _503
REMARK  204  A    between atoms: _506  and  _508
REMARK  205  A    between atoms: _508  and  _509
REMARK  206  A    between atoms: _508  and  _511
REMARK  207  A    between atoms: _511  and  _512
REMARK  208  A    between atoms: _515  and  _517
REMARK  209  A    between atoms: _517  and  _518
REMARK  210  A    between atoms: _517  and  _520
REMARK  211  A    between atoms: _520  and  _521
REMARK  212  A    between atoms: _526  and  _528
REMARK  213  A    between atoms: _528  and  _529
REMARK  214  A    between atoms: _528  and  _531
REMARK  215  A    between atoms: _531  and  _532
REMARK  216  A    between atoms: _532  and  _533
REMARK  217  A    between atoms: _533  and  _534
REMARK  218  A    between atoms: _543  and  _545
REMARK  219  A    between atoms: _545  and  _546
REMARK  220  A    between atoms: _545  and  _548
REMARK  221  A    between atoms: _548  and  _549
REMARK  222  A    between atoms: _549  and  _550
REMARK  223  A    between atoms: _550  and  _551
REMARK  224  A    between atoms: _560  and  _562
REMARK  225  A    between atoms: _562  and  _563
REMARK  226  A    between atoms: _562  and  _565
REMARK  227  A    between atoms: _565  and  _566
REMARK  228  A    between atoms: _568  and  _570
REMARK  229  A    between atoms: _570  and  _571
REMARK  230  A    between atoms: _570  and  _573
REMARK  231  A    between atoms: _573  and  _574
REMARK  232  A    between atoms: _574  and  _575
REMARK  233  A    between atoms: _580  and  _582
REMARK  234  A    between atoms: _582  and  _583
REMARK  235  A    between atoms: _582  and  _585
REMARK  236  A    between atoms: _585  and  _586
REMARK  237  A    between atoms: _588  and  _590
REMARK  238  A    between atoms: _590  and  _591
REMARK  239  A    between atoms: _590  and  _593
REMARK  240  A    between atoms: _593  and  _594
REMARK  241  A    between atoms: _596  and  _598
REMARK  242  A    between atoms: _598  and  _599
REMARK  243  A    between atoms: _598  and  _601
REMARK  244  A    between atoms: _601  and  _602
REMARK  245  A    between atoms: _605  and  _607
REMARK  246  A    between atoms: _607  and  _608
REMARK  247  A    between atoms: _607  and  _610
REMARK  248  A    between atoms: _610  and  _611
REMARK  249  A    between atoms: _614  and  _616
REMARK  250  A    between atoms: _616  and  _617
REMARK  251  A    between atoms: _616  and  _619
REMARK  252  A    between atoms: _622  and  _624
REMARK  253  A    between atoms: _624  and  _625
REMARK  254  A    between atoms: _627  and  _629
REMARK  255  A    between atoms: _629  and  _630
REMARK  256  A    between atoms: _633  and  _635
REMARK  257  A    between atoms: _635  and  _636
REMARK  258  A    between atoms: _635  and  _638
REMARK                            x       y       z     vdW  Elec       q    Type
REMARK                         _______ _______ _______ _____ _____    ______ ____
ROOT
ATOM      1  C   ILE A   2      11.927   6.003  24.570  0.00  0.00    +0.241 C 
ATOM      2  N   ALA A   3      11.369   4.939  24.000  0.00  0.00    -0.297 N 
ATOM      3  H   ALA A   3      10.848   4.252  24.582  0.00  0.00    +0.150 HD
ATOM      4  O   ILE A   2      12.586   6.821  23.924  0.00  0.00    -0.273 OA
ENDROOT
BRANCH   2   5
ATOM      5  CA  ALA A   3      11.486   4.732  22.560  0.00  0.00    +0.149 C 
ATOM      6  CB  ALA A   3      11.108   3.299  22.198  0.00  0.00    +0.031 C 
BRANCH   5   7
ATOM      7  C   ALA A   3      10.539   5.713  21.864  0.00  0.00    +0.241 C 
ATOM      8  O   ALA A   3       9.487   6.060  22.406  0.00  0.00    -0.273 OA
ATOM      9  N   ARG A   4      10.923   6.170  20.677  0.00  0.00    -0.298 N 
ATOM     10  H   ARG A   4      11.840   5.866  20.292  0.00  0.00    +0.150 HD
BRANCH   9  11
ATOM     11  CA  ARG A   4      10.097   7.086  19.896  0.00  0.00    +0.137 C 
BRANCH  11  12
ATOM     12  C   ARG A   4       9.470   6.272  18.763  0.00  0.00    +0.227 C 
ATOM     13  O   ARG A   4      10.115   5.386  18.197  0.00  0.00    -0.286 OA
ENDBRANCH  11  12
BRANCH  11  14
ATOM     14  CB  ARG A   4      10.957   8.208  19.309  0.00  0.00    +0.031 C 
BRANCH  14  15
ATOM     15  CG  ARG A   4      11.154   9.436  20.205  0.00  0.00    +0.045 C 
BRANCH  15  16
ATOM     16  CD  ARG A   4      11.312   9.096  21.676  0.00  0.00    +0.174 C 
BRANCH  16  17
ATOM     17  NE  ARG A   4      11.716  10.263  22.462  0.00  0.00    -0.265 N 
ATOM     18  CZ  ARG A   4      11.541  10.387  23.778  0.00  0.00    +0.342 C 
ATOM     19  NH2 ARG A   4      10.960   9.418  24.473  0.00  0.00    -0.292 N 
ATOM     20 HH21 ARG A   4      10.827   9.522  25.499  0.00  0.00    +0.255 HD
ATOM     21 HH22 ARG A   4      10.638   8.554  23.992  0.00  0.00    +0.255 HD
ATOM     22  NH1 ARG A   4      11.960  11.481  24.404  0.00  0.00    -0.292 N 
ATOM     23 HH11 ARG A   4      11.823  11.577  25.430  0.00  0.00    +0.255 HD
ATOM     24 HH12 ARG A   4      12.425  12.241  23.868  0.00  0.00    +0.255 HD
ATOM     25  HE  ARG A   4      12.172  11.051  21.959  0.00  0.00    +0.259 HD
ENDBRANCH  16  17
ENDBRANCH  15  16
ENDBRANCH  14  15
ENDBRANCH  11  14
ENDBRANCH   9  11
ENDBRANCH   5   7
ENDBRANCH   2   5
BRANCH   1  26
ATOM     26  CA  ILE A   2      11.713   6.177  26.080  0.00  0.00    +0.148 C 
BRANCH  26  29
ATOM     27  C   GLU A   1       9.924   4.911  27.110  0.00  0.00    +0.238 C 
ATOM     28  O   GLU A   1       9.119   5.810  26.876  0.00  0.00    -0.274 OA
ATOM     29  N   ILE A   2      11.208   4.990  26.764  0.00  0.00    -0.297 N 
ATOM     30  H   ILE A   2      11.853   4.204  26.982  0.00  0.00    +0.150 HD
BRANCH  27  31
ATOM     31  CA  GLU A   1       9.468   3.643  27.818  0.00  0.00    +0.145 C 
BRANCH  31  32
ATOM     32  N   GLU A   1      10.128   2.443  27.314  0.00  0.00    -0.238 NA
ATOM     33  H   GLU A   1      10.605   1.797  27.974  0.00  0.00    +0.142 HD
ENDBRANCH  31  32
BRANCH  31  34
ATOM     34  CB  GLU A   1       9.685   3.801  29.328  0.00  0.00    +0.038 C 
BRANCH  34  35
ATOM     35  CG  GLU A   1       8.829   4.915  29.910  0.00  0.00    +0.116 C 
BRANCH  35  36
ATOM     36  CD  GLU A   1       8.937   5.024  31.413  0.00  0.00    +0.365 C 
ATOM     37  OE2 GLU A   1       8.776   3.991  32.098  0.00  0.00    -0.246 OA
ATOM     38  OE1 GLU A   1       9.171   6.147  31.913  0.00  0.00    -0.246 OA
ENDBRANCH  35  36
ENDBRANCH  34  35
ENDBRANCH  31  34
ENDBRANCH  27  31
ENDBRANCH  26  29
BRANCH  26  39
ATOM     39  CB  ILE A   2      13.024   6.699  26.741  0.00  0.00    +0.027 C 
ATOM     40  CG2 ILE A   2      12.739   7.103  28.199  0.00  0.00    +0.002 C 
BRANCH  39  41
ATOM     41  CG1 ILE A   2      14.112   5.622  26.694  0.00  0.00    +0.002 C 
ATOM     42  CD1 ILE A   2      15.456   6.086  27.249  0.00  0.00    +0.000 C 
ENDBRANCH  39  41
ENDBRANCH  26  39
ENDBRANCH   1  26
TORSDOF 17
REMARK  Name = ../refined-set-2016/3lpk/3lpk_pocket.pdb
REMARK  258 active torsions:
REMARK  status: ('A' for Active; 'I' for Inactive)
REMARK    1  A    between atoms: _1  and  _3
REMARK    2  A    between atoms: _3  and  _4
REMARK    3  A    between atoms: _3  and  _6
REMARK    4  A    between atoms: _6  and  _7
REMARK    5  A    between atoms: _7  and  _8
REMARK    6  A    between atoms: _8  and  _9
REMARK    7  A    between atoms: _9  and  _10
REMARK    8  A    between atoms: _14  and  _16
REMARK    9  A    between atoms: _16  and  _17
REMARK   10  A    between atoms: _16  and  _19
REMARK   11  A    between atoms: _19  and  _20
REMARK   12  A    between atoms: _22  and  _24
REMARK   13  A    between atoms: _24  and  _25
REMARK   14  A    between atoms: _27  and  _29
REMARK   15  A    between atoms: _29  and  _30
REMARK   16  A    between atoms: _29  and  _32
REMARK   17  A    between atoms: _32  and  _33
REMARK   18  A    between atoms: _33  and  _34
REMARK   19  A    between atoms: _39  and  _41
REMARK   20  A    between atoms: _41  and  _42
REMARK   21  A    between atoms: _44  and  _46
REMARK   22  A    between atoms: _46  and  _47
REMARK   23  A    between atoms: _46  and  _49
REMARK   24  A    between atoms: _49  and  _50
REMARK   25  A    between atoms: _55  and  _56
REMARK   26  A    between atoms: _58  and  _60
REMARK   27  A    between atoms: _60  and  _61
REMARK   28  A    between atoms: _60  and  _63
REMARK   29  A    between atoms: _63  and  _64
REMARK   30  A    between atoms: _67  and  _69
REMARK   31  A    between atoms: _69  and  _70
REMARK   32  A    between atoms: _69  and  _72
REMARK   33  A    between atoms: _75  and  _77
REMARK   34  A    between atoms: _77  and  _78
REMARK   35  A    between atoms: _77  and  _80
REMARK   36  A    between atoms: _80  and  _81
REMARK   37  A    between atoms: _84  and  _86
REMARK   38  A    between atoms: _86  and  _87
REMARK   39  A    between atoms: _86  and  _89
REMARK   40  A    between atoms: _89  and  _90
REMARK   41  A    between atoms: _93  and  _95
REMARK   42  A    between atoms: _95  and  _96
REMARK   43  A    between atoms: _98  and  _100
REMARK   44  A    between atoms: _100  and  _101
REMARK   45  A    between atoms: _100  and  _103
REMARK   46  A    between atoms: _103  and  _104
REMARK   47  A    between atoms: _106  and  _108
REMARK   48  A    between atoms: _108  and  _109
REMARK   49  A    between atoms: _108  and  _111
REMARK   50  A    between atoms: _111  and  _112
REMARK   51  A    between atoms: _114  and  _116
REMARK   52  A    between atoms: _116  and  _117
REMARK   53  A    between atoms: _116  and  _119
REMARK   54  A    between atoms: _119  and  _120
REMARK   55  A    between atoms: _125  and  _127
REMARK   56  A    between atoms: _127  and  _128
REMARK   57  A    between atoms: _127  and  _130
REMARK   58  A    between atoms: _130  and  _131
REMARK   59  A    between atoms: _136  and  _137
REMARK   60  A    between atoms: _139  and  _141
REMARK   61  A    between atoms: _141  and  _142
REMARK   62  A    between atoms: _141  and  _144
REMARK   63  A    between atoms: _148  and  _149
REMARK   64  A    between atoms: _154  and  _156
REMARK   65  A    between atoms: _156  and  _157
REMARK   66  A    between atoms: _156  and  _159
REMARK   67  A    between atoms: _159  and  _160
REMARK   68  A    between atoms: _165  and  _166
REMARK   69  A    between atoms: _168  and  _170
REMARK   70  A    between atoms: _170  and  _171
REMARK   71  A    between atoms: _170  and  _173
REMARK   72  A    between atoms: _173  and  _174
REMARK   73  A    between atoms: _177  and  _179
REMARK   74  A    between atoms: _179  and  _180
REMARK   75  A    between atoms: _179  and  _182
REMARK   76  A    between atoms: _182  and  _183
REMARK   77  A    between atoms: _183  and  _184
REMARK   78  A    between atoms: _189  and  _191
REMARK   79  A    between atoms: _191  and  _192
REMARK   80  A    between atoms: _194  and  _196
REMARK   81  A    between atoms: _196  and  _197
REMARK   82  A    between atoms: _196  and  _199
REMARK   83  A    between atoms: _199  and  _200
REMARK   84  A    between atoms: _200  and  _201
REMARK   85  A    between atoms: _201  and  _202
REMARK   86  A    between atoms: _202  and  _203
REMARK   87  A    between atoms: _207  and  _209
REMARK   88  A    between atoms: _209  and  _210
REMARK   89  A    between atoms: _209  and  _212
REMARK   90  A    between atoms: _212  and  _213
REMARK   91  A    between atoms: _223  and  _225
REMARK   92  A    between atoms: _225  and  _226
REMARK   93  A    between atoms: _225  and  _228
REMARK   94  A    between atoms: _228  and  _229
REMARK   95  A    between atoms: _232  and  _234
REMARK   96  A    between atoms: _234  and  _235
REMARK   97  A    between atoms: _234  and  _237
REMARK   98  A    between atoms: _237  and  _238
REMARK   99  A    between atoms: _238  and  _239
REMARK  100  A    between atoms: _239  and  _240
REMARK  101  A    between atoms: _240  and  _241
REMARK  102  A    between atoms: _245  and  _247
REMARK  103  A    between atoms: _247  and  _248
REMARK  104  A    between atoms: _247  and  _250
REMARK  105  A    between atoms: _250  and  _251
REMARK  106  A    between atoms: _257  and  _259
REMARK  107  A    between atoms: _259  and  _260
REMARK  108  A    between atoms: _259  and  _262
REMARK  109  A    between atoms: _262  and  _263
REMARK  110  A    between atoms: _269  and  _271
REMARK  111  A    between atoms: _271  and  _272
REMARK  112  A    between atoms: _271  and  _274
REMARK  113  A    between atoms: _274  and  _275
REMARK  114  A    between atoms: _278  and  _280
REMARK  115  A    between atoms: _280  and  _281
REMARK  116  A    between atoms: _280  and  _283
REMARK  117  A    between atoms: _283  and  _284
REMARK  118  A    between atoms: _286  and  _288
REMARK  119  A    between atoms: _288  and  _289
REMARK  120  A    between atoms: _288  and  _291
REMARK  121  A    between atoms: _291  and  _292
REMARK  122  A    between atoms: _302  and  _304
REMARK  123  A    between atoms: _304  and  _305
REMARK  124  A    between atoms: _307  and  _309
REMARK  125  A    between atoms: _309  and  _310
REMARK  126  A    between atoms: _309  and  _312
REMARK  127  A    between atoms: _312  and  _313
REMARK  128  A    between atoms: _316  and  _318
REMARK  129  A    between atoms: _318  and  _319
REMARK  130  A    between atoms: _318  and  _321
REMARK  131  A    between atoms: _321  and  _322
REMARK  132  A    between atoms: _325  and  _327
REMARK  133  A    between atoms: _327  and  _328
REMARK  134  A    between atoms: _330  and  _332
REMARK  135  A    between atoms: _332  and  _333
REMARK  136  A    between atoms: _332  and  _335
REMARK  137  A    between atoms: _335  and  _336
REMARK  138  A    between atoms: _339  and  _341
REMARK  139  A    between atoms: _341  and  _342
REMARK  140  A    between atoms: _345  and  _347
REMARK  141  A    between atoms: _347  and  _348
REMARK  142  A    between atoms: _347  and  _350
REMARK  143  A    between atoms: _350  and  _351
REMARK  144  A    between atoms: _356  and  _357
REMARK  145  A    between atoms: _359  and  _361
REMARK  146  A    between atoms: _361  and  _362
REMARK  147  A    between atoms: _361  and  _364
REMARK  148  A    between atoms: _364  and  _365
REMARK  149  A    between atoms: _365  and  _366
REMARK  150  A    between atoms: _369  and  _371
REMARK  151  A    between atoms: _371  and  _372
REMARK  152  A    between atoms: _371  and  _374
REMARK  153  A    between atoms: _374  and  _375
REMARK  154  A    between atoms: _378  and  _380
REMARK  155  A    between atoms: _380  and  _381
REMARK  156  A    between atoms: _384  and  _386
REMARK  157  A    between atoms: _386  and  _387
REMARK  158  A    between atoms: _386  and  _389
REMARK  159  A    between atoms: _389  and  _390
REMARK  160  A    between atoms: _390  and  _391
REMARK  161  A    between atoms: _391  and  _392
REMARK  162  A    between atoms: _401  and  _403
REMARK  163  A    between atoms: _403  and  _404
REMARK  164  A    between atoms: _403  and  _406
REMARK  165  A    between atoms: _406  and  _407
REMARK  166  A    between atoms: _417  and  _419
REMARK  167  A    between atoms: _419  and  _420
REMARK  168  A    between atoms: _419  and  _422
REMARK  169  A    between atoms: _422  and  _423
REMARK  170  A    between atoms: _428  and  _429
REMARK  171  A    between atoms: _431  and  _433
REMARK  172  A    between atoms: _433  and  _434
REMARK  173  A    between atoms: _433  and  _436
REMARK  174  A    between atoms: _436  and  _437
REMARK  175  A    between atoms: _442  and  _443
REMARK  176  A    between atoms: _445  and  _447
REMARK  177  A    between atoms: _447  and  _448
REMARK  178  A    between atoms: _447  and  _450
REMARK  179  A    between atoms: _450  and  _451
REMARK  180  A    between atoms: _451  and  _452
REMARK  181  A    between atoms: _452  and  _453
REMARK  182  A    between atoms: _453  and  _454
REMARK  183  A    between atoms: _458  and  _460
REMARK  184  A    between atoms: _460  and  _461
REMARK  185  A    between atoms: _460  and  _463
REMARK  186  A    between atoms: _463  and  _464
REMARK  187  A    between atoms: _467  and  _469
REMARK  188  A    between atoms: _469  and  _470
REMARK  189  A    between atoms: _469  and  _472
REMARK  190  A    between atoms: _475  and  _477
REMARK  191  A    between atoms: _477  and  _478
REMARK  192  A    between atoms: _477  and  _480
REMARK  193  A    between atoms: _480  and  _481
REMARK  194  A    between atoms: _484  and  _486
REMARK  195  A    between atoms: _486  and  _487
REMARK  196  A    between atoms: _486  and  _489
REMARK  197  A    between atoms: _489  and  _490
REMARK  198  A    between atoms: _492  and  _494
REMARK  199  A    between atoms: _494  and  _495
REMARK  200  A    between atoms: _497  and  _499
REMARK  201  A    between atoms: _499  and  _500
REMARK  202  A    between atoms: _499  and  _502
REMARK  203  A    between atoms: _502  and  _503
REMARK  204  A    between atoms: _506  and  _508
REMARK  205  A    between atoms: _508  and  _509
REMARK  206  A    between atoms: _508  and  _511
REMARK  207  A    between atoms: _511  and  _512
REMARK  208  A    between atoms: _515  and  _517
REMARK  209  A    between atoms: _517  and  _518
REMARK  210  A    between atoms: _517  and  _520
REMARK  211  A    between atoms: _520  and  _521
REMARK  212  A    between atoms: _526  and  _528
REMARK  213  A    between atoms: _528  and  _529
REMARK  214  A    between atoms: _528  and  _531
REMARK  215  A    between atoms: _531  and  _532
REMARK  216  A    between atoms: _532  and  _533
REMARK  217  A    between atoms: _533  and  _534
REMARK  218  A    between atoms: _543  and  _545
REMARK  219  A    between atoms: _545  and  _546
REMARK  220  A    between atoms: _545  and  _548
REMARK  221  A    between atoms: _548  and  _549
REMARK  222  A    between atoms: _549  and  _550
REMARK  223  A    between atoms: _550  and  _551
REMARK  224  A    between atoms: _560  and  _562
REMARK  225  A    between atoms: _562  and  _563
REMARK  226  A    between atoms: _562  and  _565
REMARK  227  A    between atoms: _565  and  _566
REMARK  228  A    between atoms: _568  and  _570
REMARK  229  A    between atoms: _570  and  _571
REMARK  230  A    between atoms: _570  and  _573
REMARK  231  A    between atoms: _573  and  _574
REMARK  232  A    between atoms: _574  and  _575
REMARK  233  A    between atoms: _580  and  _582
REMARK  234  A    between atoms: _582  and  _583
REMARK  235  A    between atoms: _582  and  _585
REMARK  236  A    between atoms: _585  and  _586
REMARK  237  A    between atoms: _588  and  _590
REMARK  238  A    between atoms: _590  and  _591
REMARK  239  A    between atoms: _590  and  _593
REMARK  240  A    between atoms: _593  and  _594
REMARK  241  A    between atoms: _596  and  _598
REMARK  242  A    between atoms: _598  and  _599
REMARK  243  A    between atoms: _598  and  _601
REMARK  244  A    between atoms: _601  and  _602
REMARK  245  A    between atoms: _605  and  _607
REMARK  246  A    between atoms: _607  and  _608
REMARK  247  A    between atoms: _607  and  _610
REMARK  248  A    between atoms: _610  and  _611
REMARK  249  A    between atoms: _614  and  _616
REMARK  250  A    between atoms: _616  and  _617
REMARK  251  A    between atoms: _616  and  _619
REMARK  252  A    between atoms: _622  and  _624
REMARK  253  A    between atoms: _624  and  _625
REMARK  254  A    between atoms: _627  and  _629
REMARK  255  A    between atoms: _629  and  _630
REMARK  256  A    between atoms: _633  and  _635
REMARK  257  A    between atoms: _635  and  _636
REMARK  258  A    between atoms: _635  and  _638
REMARK                            x       y       z     vdW  Elec       q    Type
REMARK                         _______ _______ _______ _____ _____    ______ ____
ROOT
ATOM      1  CA  TYR A   2      17.001   4.945  30.977  0.00  0.00    +0.153 C 
ENDROOT
BRANCH   1   3
ATOM      2  C   TRP A   1      14.848   3.882  30.586  0.00  0.00    +0.239 C 
ATOM      3  N   TYR A   2      15.581   4.749  31.278  0.00  0.00    -0.297 N 
ATOM      4  H   TYR A   2      15.140   5.296  32.044  0.00  0.00    +0.150 HD
ATOM      5  O   TRP A   1      15.279   3.285  29.604  0.00  0.00    -0.274 OA
BRANCH   2   6
ATOM      6  CA  TRP A   1      13.424   3.609  31.063  0.00  0.00    +0.149 C 
BRANCH   6   7
ATOM      7  N   TRP A   1      13.687   2.684  32.158  0.00  0.00    -0.238 NA
ATOM      8  H   TRP A   1      14.556   2.808  32.716  0.00  0.00    +0.142 HD
ENDBRANCH   6   7
BRANCH   6   9
ATOM      9  CB  TRP A   1      12.638   4.849  31.522  0.00  0.00    +0.054 C 
BRANCH   9  10
ATOM     10  CG  TRP A   1      13.157   5.655  32.671  0.00  0.00    -0.002 A 
ATOM     11  CD1 TRP A   1      13.840   5.210  33.766  0.00  0.00    +0.068 A 
ATOM     12  NE1 TRP A   1      14.060   6.254  34.643  0.00  0.00    -0.352 N 
ATOM     13  HE1 TRP A   1      14.557   6.185  35.554  0.00  0.00    +0.166 HD
ATOM     14  CE2 TRP A   1      13.516   7.395  34.116  0.00  0.00    +0.056 A 
ATOM     15  CZ2 TRP A   1      13.481   8.690  34.622  0.00  0.00    +0.017 A 
ATOM     16  CH2 TRP A   1      12.856   9.648  33.868  0.00  0.00    +0.001 A 
ATOM     17  CZ3 TRP A   1      12.271   9.339  32.631  0.00  0.00    +0.000 A 
ATOM     18  CE3 TRP A   1      12.306   8.053  32.126  0.00  0.00    +0.001 A 
ATOM     19  CD2 TRP A   1      12.939   7.055  32.874  0.00  0.00    +0.013 A 
ENDBRANCH   9  10
ENDBRANCH   6   9
ENDBRANCH   2   6
ENDBRANCH   1   3
BRANCH   1  20
ATOM     20  C   TYR A   2      17.559   3.875  31.915  0.00  0.00    +0.241 C 
ATOM     21  O   TYR A   2      16.791   3.213  32.616  0.00  0.00    -0.273 OA
ATOM     22  N   TYR A   3      18.872   3.676  31.937  0.00  0.00    -0.298 N 
ATOM     23  H   TYR A   3      19.493   4.169  31.264  0.00  0.00    +0.150 HD
BRANCH  22  24
ATOM     24  CA  TYR A   3      19.426   2.756  32.920  0.00  0.00    +0.141 C 
BRANCH  24  25
ATOM     25  C   TYR A   3      19.678   3.703  34.101  0.00  0.00    +0.227 C 
ATOM     26  O   TYR A   3      20.779   4.230  34.277  0.00  0.00    -0.286 OA
ENDBRANCH  24  25
BRANCH  24  27
ATOM     27  CB  TYR A   3      20.734   2.113  32.432  0.00  0.00    +0.054 C 
BRANCH  27  28
ATOM     28  CG  TYR A   3      20.478   1.010  31.428  0.00  0.00    -0.020 A 
ATOM     29  CD2 TYR A   3      19.972  -0.221  31.840  0.00  0.00    -0.001 A 
ATOM     30  CE2 TYR A   3      19.631  -1.199  30.926  0.00  0.00    +0.036 A 
ATOM     31  CZ  TYR A   3      19.799  -0.954  29.580  0.00  0.00    +0.134 A 
ATOM     32  CE1 TYR A   3      20.310   0.258  29.144  0.00  0.00    +0.036 A 
ATOM     33  CD1 TYR A   3      20.646   1.227  30.065  0.00  0.00    -0.001 A 
BRANCH  31  34
ATOM     34  OH  TYR A   3      19.438  -1.913  28.664  0.00  0.00    -0.506 OA
ATOM     35  HH  TYR A   3      19.622  -1.581  27.750  0.00  0.00    +0.292 HD
ENDBRANCH  31  34
ENDBRANCH  27  28
ENDBRANCH  24  27
ENDBRANCH  22  24
ENDBRANCH   1  20
BRANCH   1  36
ATOM     36  CB  TYR A   2      17.513   6.296  31.507  0.00  0.00    +0.055 C 
BRANCH  36  37
ATOM     37  CG  TYR A   2      16.972   7.521  30.816  0.00  0.00    -0.020 A 
ATOM     38  CD2 TYR A   2      15.901   8.226  31.350  0.00  0.00    -0.001 A 
ATOM     39  CE2 TYR A   2      15.395   9.349  30.714  0.00  0.00    +0.036 A 
ATOM     40  CZ  TYR A   2      15.968   9.771  29.535  0.00  0.00    +0.134 A 
ATOM     41  CE1 TYR A   2      17.034   9.086  28.990  0.00  0.00    +0.036 A 
ATOM     42  CD1 TYR A   2      17.526   7.970  29.628  0.00  0.00    -0.001 A 
BRANCH  40  43
ATOM     43  OH  TYR A   2      15.480  10.881  28.890  0.00  0.00    -0.506 OA
ATOM     44  HH  TYR A   2      14.530  10.733  28.654  0.00  0.00    +0.292 HD
ENDBRANCH  40  43
ENDBRANCH  36  37
ENDBRANCH   1  36
TORSDOF 14
REMARK  Name = ../refined-set-2016/3lpk/3lpk_pocket.pdb
REMARK  258 active torsions:
REMARK  status: ('A' for Active; 'I' for Inactive)
REMARK    1  A    between atoms: _1  and  _3
REMARK    2  A    between atoms: _3  and  _4
REMARK    3  A    between atoms: _3  and  _6
REMARK    4  A    between atoms: _6  and  _7
REMARK    5  A    between atoms: _7  and  _8
REMARK    6  A    between atoms: _8  and  _9
REMARK    7  A    between atoms: _9  and  _10
REMARK    8  A    between atoms: _14  and  _16
REMARK    9  A    between atoms: _16  and  _17
REMARK   10  A    between atoms: _16  and  _19
REMARK   11  A    between atoms: _19  and  _20
REMARK   12  A    between atoms: _22  and  _24
REMARK   13  A    between atoms: _24  and  _25
REMARK   14  A    between atoms: _27  and  _29
REMARK   15  A    between atoms: _29  and  _30
REMARK   16  A    between atoms: _29  and  _32
REMARK   17  A    between atoms: _32  and  _33
REMARK   18  A    between atoms: _33  and  _34
REMARK   19  A    between atoms: _39  and  _41
REMARK   20  A    between atoms: _41  and  _42
REMARK   21  A    between atoms: _44  and  _46
REMARK   22  A    between atoms: _46  and  _47
REMARK   23  A    between atoms: _46  and  _49
REMARK   24  A    between atoms: _49  and  _50
REMARK   25  A    between atoms: _55  and  _56
REMARK   26  A    between atoms: _58  and  _60
REMARK   27  A    between atoms: _60  and  _61
REMARK   28  A    between atoms: _60  and  _63
REMARK   29  A    between atoms: _63  and  _64
REMARK   30  A    between atoms: _67  and  _69
REMARK   31  A    between atoms: _69  and  _70
REMARK   32  A    between atoms: _69  and  _72
REMARK   33  A    between atoms: _75  and  _77
REMARK   34  A    between atoms: _77  and  _78
REMARK   35  A    between atoms: _77  and  _80
REMARK   36  A    between atoms: _80  and  _81
REMARK   37  A    between atoms: _84  and  _86
REMARK   38  A    between atoms: _86  and  _87
REMARK   39  A    between atoms: _86  and  _89
REMARK   40  A    between atoms: _89  and  _90
REMARK   41  A    between atoms: _93  and  _95
REMARK   42  A    between atoms: _95  and  _96
REMARK   43  A    between atoms: _98  and  _100
REMARK   44  A    between atoms: _100  and  _101
REMARK   45  A    between atoms: _100  and  _103
REMARK   46  A    between atoms: _103  and  _104
REMARK   47  A    between atoms: _106  and  _108
REMARK   48  A    between atoms: _108  and  _109
REMARK   49  A    between atoms: _108  and  _111
REMARK   50  A    between atoms: _111  and  _112
REMARK   51  A    between atoms: _114  and  _116
REMARK   52  A    between atoms: _116  and  _117
REMARK   53  A    between atoms: _116  and  _119
REMARK   54  A    between atoms: _119  and  _120
REMARK   55  A    between atoms: _125  and  _127
REMARK   56  A    between atoms: _127  and  _128
REMARK   57  A    between atoms: _127  and  _130
REMARK   58  A    between atoms: _130  and  _131
REMARK   59  A    between atoms: _136  and  _137
REMARK   60  A    between atoms: _139  and  _141
REMARK   61  A    between atoms: _141  and  _142
REMARK   62  A    between atoms: _141  and  _144
REMARK   63  A    between atoms: _148  and  _149
REMARK   64  A    between atoms: _154  and  _156
REMARK   65  A    between atoms: _156  and  _157
REMARK   66  A    between atoms: _156  and  _159
REMARK   67  A    between atoms: _159  and  _160
REMARK   68  A    between atoms: _165  and  _166
REMARK   69  A    between atoms: _168  and  _170
REMARK   70  A    between atoms: _170  and  _171
REMARK   71  A    between atoms: _170  and  _173
REMARK   72  A    between atoms: _173  and  _174
REMARK   73  A    between atoms: _177  and  _179
REMARK   74  A    between atoms: _179  and  _180
REMARK   75  A    between atoms: _179  and  _182
REMARK   76  A    between atoms: _182  and  _183
REMARK   77  A    between atoms: _183  and  _184
REMARK   78  A    between atoms: _189  and  _191
REMARK   79  A    between atoms: _191  and  _192
REMARK   80  A    between atoms: _194  and  _196
REMARK   81  A    between atoms: _196  and  _197
REMARK   82  A    between atoms: _196  and  _199
REMARK   83  A    between atoms: _199  and  _200
REMARK   84  A    between atoms: _200  and  _201
REMARK   85  A    between atoms: _201  and  _202
REMARK   86  A    between atoms: _202  and  _203
REMARK   87  A    between atoms: _207  and  _209
REMARK   88  A    between atoms: _209  and  _210
REMARK   89  A    between atoms: _209  and  _212
REMARK   90  A    between atoms: _212  and  _213
REMARK   91  A    between atoms: _223  and  _225
REMARK   92  A    between atoms: _225  and  _226
REMARK   93  A    between atoms: _225  and  _228
REMARK   94  A    between atoms: _228  and  _229
REMARK   95  A    between atoms: _232  and  _234
REMARK   96  A    between atoms: _234  and  _235
REMARK   97  A    between atoms: _234  and  _237
REMARK   98  A    between atoms: _237  and  _238
REMARK   99  A    between atoms: _238  and  _239
REMARK  100  A    between atoms: _239  and  _240
REMARK  101  A    between atoms: _240  and  _241
REMARK  102  A    between atoms: _245  and  _247
REMARK  103  A    between atoms: _247  and  _248
REMARK  104  A    between atoms: _247  and  _250
REMARK  105  A    between atoms: _250  and  _251
REMARK  106  A    between atoms: _257  and  _259
REMARK  107  A    between atoms: _259  and  _260
REMARK  108  A    between atoms: _259  and  _262
REMARK  109  A    between atoms: _262  and  _263
REMARK  110  A    between atoms: _269  and  _271
REMARK  111  A    between atoms: _271  and  _272
REMARK  112  A    between atoms: _271  and  _274
REMARK  113  A    between atoms: _274  and  _275
REMARK  114  A    between atoms: _278  and  _280
REMARK  115  A    between atoms: _280  and  _281
REMARK  116  A    between atoms: _280  and  _283
REMARK  117  A    between atoms: _283  and  _284
REMARK  118  A    between atoms: _286  and  _288
REMARK  119  A    between atoms: _288  and  _289
REMARK  120  A    between atoms: _288  and  _291
REMARK  121  A    between atoms: _291  and  _292
REMARK  122  A    between atoms: _302  and  _304
REMARK  123  A    between atoms: _304  and  _305
REMARK  124  A    between atoms: _307  and  _309
REMARK  125  A    between atoms: _309  and  _310
REMARK  126  A    between atoms: _309  and  _312
REMARK  127  A    between atoms: _312  and  _313
REMARK  128  A    between atoms: _316  and  _318
REMARK  129  A    between atoms: _318  and  _319
REMARK  130  A    between atoms: _318  and  _321
REMARK  131  A    between atoms: _321  and  _322
REMARK  132  A    between atoms: _325  and  _327
REMARK  133  A    between atoms: _327  and  _328
REMARK  134  A    between atoms: _330  and  _332
REMARK  135  A    between atoms: _332  and  _333
REMARK  136  A    between atoms: _332  and  _335
REMARK  137  A    between atoms: _335  and  _336
REMARK  138  A    between atoms: _339  and  _341
REMARK  139  A    between atoms: _341  and  _342
REMARK  140  A    between atoms: _345  and  _347
REMARK  141  A    between atoms: _347  and  _348
REMARK  142  A    between atoms: _347  and  _350
REMARK  143  A    between atoms: _350  and  _351
REMARK  144  A    between atoms: _356  and  _357
REMARK  145  A    between atoms: _359  and  _361
REMARK  146  A    between atoms: _361  and  _362
REMARK  147  A    between atoms: _361  and  _364
REMARK  148  A    between atoms: _364  and  _365
REMARK  149  A    between atoms: _365  and  _366
REMARK  150  A    between atoms: _369  and  _371
REMARK  151  A    between atoms: _371  and  _372
REMARK  152  A    between atoms: _371  and  _374
REMARK  153  A    between atoms: _374  and  _375
REMARK  154  A    between atoms: _378  and  _380
REMARK  155  A    between atoms: _380  and  _381
REMARK  156  A    between atoms: _384  and  _386
REMARK  157  A    between atoms: _386  and  _387
REMARK  158  A    between atoms: _386  and  _389
REMARK  159  A    between atoms: _389  and  _390
REMARK  160  A    between atoms: _390  and  _391
REMARK  161  A    between atoms: _391  and  _392
REMARK  162  A    between atoms: _401  and  _403
REMARK  163  A    between atoms: _403  and  _404
REMARK  164  A    between atoms: _403  and  _406
REMARK  165  A    between atoms: _406  and  _407
REMARK  166  A    between atoms: _417  and  _419
REMARK  167  A    between atoms: _419  and  _420
REMARK  168  A    between atoms: _419  and  _422
REMARK  169  A    between atoms: _422  and  _423
REMARK  170  A    between atoms: _428  and  _429
REMARK  171  A    between atoms: _431  and  _433
REMARK  172  A    between atoms: _433  and  _434
REMARK  173  A    between atoms: _433  and  _436
REMARK  174  A    between atoms: _436  and  _437
REMARK  175  A    between atoms: _442  and  _443
REMARK  176  A    between atoms: _445  and  _447
REMARK  177  A    between atoms: _447  and  _448
REMARK  178  A    between atoms: _447  and  _450
REMARK  179  A    between atoms: _450  and  _451
REMARK  180  A    between atoms: _451  and  _452
REMARK  181  A    between atoms: _452  and  _453
REMARK  182  A    between atoms: _453  and  _454
REMARK  183  A    between atoms: _458  and  _460
REMARK  184  A    between atoms: _460  and  _461
REMARK  185  A    between atoms: _460  and  _463
REMARK  186  A    between atoms: _463  and  _464
REMARK  187  A    between atoms: _467  and  _469
REMARK  188  A    between atoms: _469  and  _470
REMARK  189  A    between atoms: _469  and  _472
REMARK  190  A    between atoms: _475  and  _477
REMARK  191  A    between atoms: _477  and  _478
REMARK  192  A    between atoms: _477  and  _480
REMARK  193  A    between atoms: _480  and  _481
REMARK  194  A    between atoms: _484  and  _486
REMARK  195  A    between atoms: _486  and  _487
REMARK  196  A    between atoms: _486  and  _489
REMARK  197  A    between atoms: _489  and  _490
REMARK  198  A    between atoms: _492  and  _494
REMARK  199  A    between atoms: _494  and  _495
REMARK  200  A    between atoms: _497  and  _499
REMARK  201  A    between atoms: _499  and  _500
REMARK  202  A    between atoms: _499  and  _502
REMARK  203  A    between atoms: _502  and  _503
REMARK  204  A    between atoms: _506  and  _508
REMARK  205  A    between atoms: _508  and  _509
REMARK  206  A    between atoms: _508  and  _511
REMARK  207  A    between atoms: _511  and  _512
REMARK  208  A    between atoms: _515  and  _517
REMARK  209  A    between atoms: _517  and  _518
REMARK  210  A    between atoms: _517  and  _520
REMARK  211  A    between atoms: _520  and  _521
REMARK  212  A    between atoms: _526  and  _528
REMARK  213  A    between atoms: _528  and  _529
REMARK  214  A    between atoms: _528  and  _531
REMARK  215  A    between atoms: _531  and  _532
REMARK  216  A    between atoms: _532  and  _533
REMARK  217  A    between atoms: _533  and  _534
REMARK  218  A    between atoms: _543  and  _545
REMARK  219  A    between atoms: _545  and  _546
REMARK  220  A    between atoms: _545  and  _548
REMARK  221  A    between atoms: _548  and  _549
REMARK  222  A    between atoms: _549  and  _550
REMARK  223  A    between atoms: _550  and  _551
REMARK  224  A    between atoms: _560  and  _562
REMARK  225  A    between atoms: _562  and  _563
REMARK  226  A    between atoms: _562  and  _565
REMARK  227  A    between atoms: _565  and  _566
REMARK  228  A    between atoms: _568  and  _570
REMARK  229  A    between atoms: _570  and  _571
REMARK  230  A    between atoms: _570  and  _573
REMARK  231  A    between atoms: _573  and  _574
REMARK  232  A    between atoms: _574  and  _575
REMARK  233  A    between atoms: _580  and  _582
REMARK  234  A    between atoms: _582  and  _583
REMARK  235  A    between atoms: _582  and  _585
REMARK  236  A    between atoms: _585  and  _586
REMARK  237  A    between atoms: _588  and  _590
REMARK  238  A    between atoms: _590  and  _591
REMARK  239  A    between atoms: _590  and  _593
REMARK  240  A    between atoms: _593  and  _594
REMARK  241  A    between atoms: _596  and  _598
REMARK  242  A    between atoms: _598  and  _599
REMARK  243  A    between atoms: _598  and  _601
REMARK  244  A    between atoms: _601  and  _602
REMARK  245  A    between atoms: _605  and  _607
REMARK  246  A    between atoms: _607  and  _608
REMARK  247  A    between atoms: _607  and  _610
REMARK  248  A    between atoms: _610  and  _611
REMARK  249  A    between atoms: _614  and  _616
REMARK  250  A    between atoms: _616  and  _617
REMARK  251  A    between atoms: _616  and  _619
REMARK  252  A    between atoms: _622  and  _624
REMARK  253  A    between atoms: _624  and  _625
REMARK  254  A    between atoms: _627  and  _629
REMARK  255  A    between atoms: _629  and  _630
REMARK  256  A    between atoms: _633  and  _635
REMARK  257  A    between atoms: _635  and  _636
REMARK  258  A    between atoms: _635  and  _638
REMARK                            x       y       z     vdW  Elec       q    Type
REMARK                         _______ _______ _______ _____ _____    ______ ____
ROOT
ATOM      1  CG  LYS A   1      17.461  11.597  35.037  0.00  0.00    -0.000 C 
ENDROOT
BRANCH   1   2
ATOM      2  CB  LYS A   1      17.043  10.934  36.355  0.00  0.00    +0.025 C 
BRANCH   2   3
ATOM      3  CA  LYS A   1      17.808  11.465  37.578  0.00  0.00    +0.133 C 
BRANCH   3   4
ATOM      4  N   LYS A   1      17.555  12.890  37.764  0.00  0.00    -0.239 NA
ATOM      5  H   LYS A   1      18.340  13.558  37.624  0.00  0.00    +0.142 HD
ENDBRANCH   3   4
BRANCH   3   6
ATOM      6  C   LYS A   1      19.301  11.273  37.339  0.00  0.00    +0.224 C 
ATOM      7  O   LYS A   1      20.005  12.227  37.015  0.00  0.00    -0.287 OA
ENDBRANCH   3   6
ENDBRANCH   2   3
ENDBRANCH   1   2
BRANCH   1   8
ATOM      8  CD  LYS A   1      16.682  11.040  33.848  0.00  0.00    -0.024 C 
BRANCH   8   9
ATOM      9  CE  LYS A   1      16.822  11.934  32.634  0.00  0.00    -0.086 C 
BRANCH   9  10
ATOM     10  NZ  LYS A   1      16.231  13.289  32.873  0.00  0.00    +0.380 N 
ATOM     11  HZ1 LYS A   1      16.718  13.742  33.672  0.00  0.00    -0.089 HD
ATOM     12  HZ2 LYS A   1      15.219  13.191  33.093  0.00  0.00    -0.089 HD
ATOM     13  HZ3 LYS A   1      16.346  13.872  32.019  0.00  0.00    -0.089 HD
ENDBRANCH   9  10
ENDBRANCH   8   9
ENDBRANCH   1   8
TORSDOF 7
REMARK  Name = ../refined-set-2016/3lpk/3lpk_pocket.pdb
REMARK  258 active torsions:
REMARK  status: ('A' for Active; 'I' for Inactive)
REMARK    1  A    between atoms: _1  and  _3
REMARK    2  A    between atoms: _3  and  _4
REMARK    3  A    between atoms: _3  and  _6
REMARK    4  A    between atoms: _6  and  _7
REMARK    5  A    between atoms: _7  and  _8
REMARK    6  A    between atoms: _8  and  _9
REMARK    7  A    between atoms: _9  and  _10
REMARK    8  A    between atoms: _14  and  _16
REMARK    9  A    between atoms: _16  and  _17
REMARK   10  A    between atoms: _16  and  _19
REMARK   11  A    between atoms: _19  and  _20
REMARK   12  A    between atoms: _22  and  _24
REMARK   13  A    between atoms: _24  and  _25
REMARK   14  A    between atoms: _27  and  _29
REMARK   15  A    between atoms: _29  and  _30
REMARK   16  A    between atoms: _29  and  _32
REMARK   17  A    between atoms: _32  and  _33
REMARK   18  A    between atoms: _33  and  _34
REMARK   19  A    between atoms: _39  and  _41
REMARK   20  A    between atoms: _41  and  _42
REMARK   21  A    between atoms: _44  and  _46
REMARK   22  A    between atoms: _46  and  _47
REMARK   23  A    between atoms: _46  and  _49
REMARK   24  A    between atoms: _49  and  _50
REMARK   25  A    between atoms: _55  and  _56
REMARK   26  A    between atoms: _58  and  _60
REMARK   27  A    between atoms: _60  and  _61
REMARK   28  A    between atoms: _60  and  _63
REMARK   29  A    between atoms: _63  and  _64
REMARK   30  A    between atoms: _67  and  _69
REMARK   31  A    between atoms: _69  and  _70
REMARK   32  A    between atoms: _69  and  _72
REMARK   33  A    between atoms: _75  and  _77
REMARK   34  A    between atoms: _77  and  _78
REMARK   35  A    between atoms: _77  and  _80
REMARK   36  A    between atoms: _80  and  _81
REMARK   37  A    between atoms: _84  and  _86
REMARK   38  A    between atoms: _86  and  _87
REMARK   39  A    between atoms: _86  and  _89
REMARK   40  A    between atoms: _89  and  _90
REMARK   41  A    between atoms: _93  and  _95
REMARK   42  A    between atoms: _95  and  _96
REMARK   43  A    between atoms: _98  and  _100
REMARK   44  A    between atoms: _100  and  _101
REMARK   45  A    between atoms: _100  and  _103
REMARK   46  A    between atoms: _103  and  _104
REMARK   47  A    between atoms: _106  and  _108
REMARK   48  A    between atoms: _108  and  _109
REMARK   49  A    between atoms: _108  and  _111
REMARK   50  A    between atoms: _111  and  _112
REMARK   51  A    between atoms: _114  and  _116
REMARK   52  A    between atoms: _116  and  _117
REMARK   53  A    between atoms: _116  and  _119
REMARK   54  A    between atoms: _119  and  _120
REMARK   55  A    between atoms: _125  and  _127
REMARK   56  A    between atoms: _127  and  _128
REMARK   57  A    between atoms: _127  and  _130
REMARK   58  A    between atoms: _130  and  _131
REMARK   59  A    between atoms: _136  and  _137
REMARK   60  A    between atoms: _139  and  _141
REMARK   61  A    between atoms: _141  and  _142
REMARK   62  A    between atoms: _141  and  _144
REMARK   63  A    between atoms: _148  and  _149
REMARK   64  A    between atoms: _154  and  _156
REMARK   65  A    between atoms: _156  and  _157
REMARK   66  A    between atoms: _156  and  _159
REMARK   67  A    between atoms: _159  and  _160
REMARK   68  A    between atoms: _165  and  _166
REMARK   69  A    between atoms: _168  and  _170
REMARK   70  A    between atoms: _170  and  _171
REMARK   71  A    between atoms: _170  and  _173
REMARK   72  A    between atoms: _173  and  _174
REMARK   73  A    between atoms: _177  and  _179
REMARK   74  A    between atoms: _179  and  _180
REMARK   75  A    between atoms: _179  and  _182
REMARK   76  A    between atoms: _182  and  _183
REMARK   77  A    between atoms: _183  and  _184
REMARK   78  A    between atoms: _189  and  _191
REMARK   79  A    between atoms: _191  and  _192
REMARK   80  A    between atoms: _194  and  _196
REMARK   81  A    between atoms: _196  and  _197
REMARK   82  A    between atoms: _196  and  _199
REMARK   83  A    between atoms: _199  and  _200
REMARK   84  A    between atoms: _200  and  _201
REMARK   85  A    between atoms: _201  and  _202
REMARK   86  A    between atoms: _202  and  _203
REMARK   87  A    between atoms: _207  and  _209
REMARK   88  A    between atoms: _209  and  _210
REMARK   89  A    between atoms: _209  and  _212
REMARK   90  A    between atoms: _212  and  _213
REMARK   91  A    between atoms: _223  and  _225
REMARK   92  A    between atoms: _225  and  _226
REMARK   93  A    between atoms: _225  and  _228
REMARK   94  A    between atoms: _228  and  _229
REMARK   95  A    between atoms: _232  and  _234
REMARK   96  A    between atoms: _234  and  _235
REMARK   97  A    between atoms: _234  and  _237
REMARK   98  A    between atoms: _237  and  _238
REMARK   99  A    between atoms: _238  and  _239
REMARK  100  A    between atoms: _239  and  _240
REMARK  101  A    between atoms: _240  and  _241
REMARK  102  A    between atoms: _245  and  _247
REMARK  103  A    between atoms: _247  and  _248
REMARK  104  A    between atoms: _247  and  _250
REMARK  105  A    between atoms: _250  and  _251
REMARK  106  A    between atoms: _257  and  _259
REMARK  107  A    between atoms: _259  and  _260
REMARK  108  A    between atoms: _259  and  _262
REMARK  109  A    between atoms: _262  and  _263
REMARK  110  A    between atoms: _269  and  _271
REMARK  111  A    between atoms: _271  and  _272
REMARK  112  A    between atoms: _271  and  _274
REMARK  113  A    between atoms: _274  and  _275
REMARK  114  A    between atoms: _278  and  _280
REMARK  115  A    between atoms: _280  and  _281
REMARK  116  A    between atoms: _280  and  _283
REMARK  117  A    between atoms: _283  and  _284
REMARK  118  A    between atoms: _286  and  _288
REMARK  119  A    between atoms: _288  and  _289
REMARK  120  A    between atoms: _288  and  _291
REMARK  121  A    between atoms: _291  and  _292
REMARK  122  A    between atoms: _302  and  _304
REMARK  123  A    between atoms: _304  and  _305
REMARK  124  A    between atoms: _307  and  _309
REMARK  125  A    between atoms: _309  and  _310
REMARK  126  A    between atoms: _309  and  _312
REMARK  127  A    between atoms: _312  and  _313
REMARK  128  A    between atoms: _316  and  _318
REMARK  129  A    between atoms: _318  and  _319
REMARK  130  A    between atoms: _318  and  _321
REMARK  131  A    between atoms: _321  and  _322
REMARK  132  A    between atoms: _325  and  _327
REMARK  133  A    between atoms: _327  and  _328
REMARK  134  A    between atoms: _330  and  _332
REMARK  135  A    between atoms: _332  and  _333
REMARK  136  A    between atoms: _332  and  _335
REMARK  137  A    between atoms: _335  and  _336
REMARK  138  A    between atoms: _339  and  _341
REMARK  139  A    between atoms: _341  and  _342
REMARK  140  A    between atoms: _345  and  _347
REMARK  141  A    between atoms: _347  and  _348
REMARK  142  A    between atoms: _347  and  _350
REMARK  143  A    between atoms: _350  and  _351
REMARK  144  A    between atoms: _356  and  _357
REMARK  145  A    between atoms: _359  and  _361
REMARK  146  A    between atoms: _361  and  _362
REMARK  147  A    between atoms: _361  and  _364
REMARK  148  A    between atoms: _364  and  _365
REMARK  149  A    between atoms: _365  and  _366
REMARK  150  A    between atoms: _369  and  _371
REMARK  151  A    between atoms: _371  and  _372
REMARK  152  A    between atoms: _371  and  _374
REMARK  153  A    between atoms: _374  and  _375
REMARK  154  A    between atoms: _378  and  _380
REMARK  155  A    between atoms: _380  and  _381
REMARK  156  A    between atoms: _384  and  _386
REMARK  157  A    between atoms: _386  and  _387
REMARK  158  A    between atoms: _386  and  _389
REMARK  159  A    between atoms: _389  and  _390
REMARK  160  A    between atoms: _390  and  _391
REMARK  161  A    between atoms: _391  and  _392
REMARK  162  A    between atoms: _401  and  _403
REMARK  163  A    between atoms: _403  and  _404
REMARK  164  A    between atoms: _403  and  _406
REMARK  165  A    between atoms: _406  and  _407
REMARK  166  A    between atoms: _417  and  _419
REMARK  167  A    between atoms: _419  and  _420
REMARK  168  A    between atoms: _419  and  _422
REMARK  169  A    between atoms: _422  and  _423
REMARK  170  A    between atoms: _428  and  _429
REMARK  171  A    between atoms: _431  and  _433
REMARK  172  A    between atoms: _433  and  _434
REMARK  173  A    between atoms: _433  and  _436
REMARK  174  A    between atoms: _436  and  _437
REMARK  175  A    between atoms: _442  and  _443
REMARK  176  A    between atoms: _445  and  _447
REMARK  177  A    between atoms: _447  and  _448
REMARK  178  A    between atoms: _447  and  _450
REMARK  179  A    between atoms: _450  and  _451
REMARK  180  A    between atoms: _451  and  _452
REMARK  181  A    between atoms: _452  and  _453
REMARK  182  A    between atoms: _453  and  _454
REMARK  183  A    between atoms: _458  and  _460
REMARK  184  A    between atoms: _460  and  _461
REMARK  185  A    between atoms: _460  and  _463
REMARK  186  A    between atoms: _463  and  _464
REMARK  187  A    between atoms: _467  and  _469
REMARK  188  A    between atoms: _469  and  _470
REMARK  189  A    between atoms: _469  and  _472
REMARK  190  A    between atoms: _475  and  _477
REMARK  191  A    between atoms: _477  and  _478
REMARK  192  A    between atoms: _477  and  _480
REMARK  193  A    between atoms: _480  and  _481
REMARK  194  A    between atoms: _484  and  _486
REMARK  195  A    between atoms: _486  and  _487
REMARK  196  A    between atoms: _486  and  _489
REMARK  197  A    between atoms: _489  and  _490
REMARK  198  A    between atoms: _492  and  _494
REMARK  199  A    between atoms: _494  and  _495
REMARK  200  A    between atoms: _497  and  _499
REMARK  201  A    between atoms: _499  and  _500
REMARK  202  A    between atoms: _499  and  _502
REMARK  203  A    between atoms: _502  and  _503
REMARK  204  A    between atoms: _506  and  _508
REMARK  205  A    between atoms: _508  and  _509
REMARK  206  A    between atoms: _508  and  _511
REMARK  207  A    between atoms: _511  and  _512
REMARK  208  A    between atoms: _515  and  _517
REMARK  209  A    between atoms: _517  and  _518
REMARK  210  A    between atoms: _517  and  _520
REMARK  211  A    between atoms: _520  and  _521
REMARK  212  A    between atoms: _526  and  _528
REMARK  213  A    between atoms: _528  and  _529
REMARK  214  A    between atoms: _528  and  _531
REMARK  215  A    between atoms: _531  and  _532
REMARK  216  A    between atoms: _532  and  _533
REMARK  217  A    between atoms: _533  and  _534
REMARK  218  A    between atoms: _543  and  _545
REMARK  219  A    between atoms: _545  and  _546
REMARK  220  A    between atoms: _545  and  _548
REMARK  221  A    between atoms: _548  and  _549
REMARK  222  A    between atoms: _549  and  _550
REMARK  223  A    between atoms: _550  and  _551
REMARK  224  A    between atoms: _560  and  _562
REMARK  225  A    between atoms: _562  and  _563
REMARK  226  A    between atoms: _562  and  _565
REMARK  227  A    between atoms: _565  and  _566
REMARK  228  A    between atoms: _568  and  _570
REMARK  229  A    between atoms: _570  and  _571
REMARK  230  A    between atoms: _570  and  _573
REMARK  231  A    between atoms: _573  and  _574
REMARK  232  A    between atoms: _574  and  _575
REMARK  233  A    between atoms: _580  and  _582
REMARK  234  A    between atoms: _582  and  _583
REMARK  235  A    between atoms: _582  and  _585
REMARK  236  A    between atoms: _585  and  _586
REMARK  237  A    between atoms: _588  and  _590
REMARK  238  A    between atoms: _590  and  _591
REMARK  239  A    between atoms: _590  and  _593
REMARK  240  A    between atoms: _593  and  _594
REMARK  241  A    between atoms: _596  and  _598
REMARK  242  A    between atoms: _598  and  _599
REMARK  243  A    between atoms: _598  and  _601
REMARK  244  A    between atoms: _601  and  _602
REMARK  245  A    between atoms: _605  and  _607
REMARK  246  A    between atoms: _607  and  _608
REMARK  247  A    between atoms: _607  and  _610
REMARK  248  A    between atoms: _610  and  _611
REMARK  249  A    between atoms: _614  and  _616
REMARK  250  A    between atoms: _616  and  _617
REMARK  251  A    between atoms: _616  and  _619
REMARK  252  A    between atoms: _622  and  _624
REMARK  253  A    between atoms: _624  and  _625
REMARK  254  A    between atoms: _627  and  _629
REMARK  255  A    between atoms: _629  and  _630
REMARK  256  A    between atoms: _633  and  _635
REMARK  257  A    between atoms: _635  and  _636
REMARK  258  A    between atoms: _635  and  _638
REMARK                            x       y       z     vdW  Elec       q    Type
REMARK                         _______ _______ _______ _____ _____    ______ ____
ROOT
ATOM      1  C   SER A   4      27.422   6.246  25.384  0.00  0.00    +0.243 C 
ATOM      2  N   GLY A   5      26.227   6.797  25.196  0.00  0.00    -0.295 N 
ATOM      3  H   GLY A   5      25.454   6.578  25.857  0.00  0.00    +0.150 HD
ATOM      4  O   SER A   4      28.388   6.473  24.657  0.00  0.00    -0.273 OA
ENDROOT
BRANCH   2   5
ATOM      5  CA  GLY A   5      25.980   7.701  24.082  0.00  0.00    +0.176 C 
BRANCH   5   6
ATOM      6  C   GLY A   5      26.346   9.151  24.356  0.00  0.00    +0.243 C 
ATOM      7  N   THR A   6      26.983   9.390  25.498  0.00  0.00    -0.295 N 
ATOM      8  H   THR A   6      27.176   8.592  26.136  0.00  0.00    +0.150 HD
ATOM      9  O   GLY A   5      26.046  10.034  23.554  0.00  0.00    -0.273 OA
BRANCH   7  10
ATOM     10  CA  THR A   6      27.425  10.727  25.897  0.00  0.00    +0.176 C 
BRANCH  10  11
ATOM     11  C   THR A   6      28.891  10.612  26.340  0.00  0.00    +0.243 C 
ATOM     12  O   THR A   6      29.263   9.676  27.048  0.00  0.00    -0.273 OA
ATOM     13  N   THR A   7      29.724  11.552  25.908  0.00  0.00    -0.295 N 
ATOM     14  H   THR A   7      29.357  12.327  25.320  0.00  0.00    +0.150 HD
BRANCH  13  15
ATOM     15  CA  THR A   7      31.147  11.518  26.243  0.00  0.00    +0.176 C 
BRANCH  15  16
ATOM     16  C   THR A   7      31.472  11.814  27.707  0.00  0.00    +0.243 C 
ATOM     17  O   THR A   7      32.099  11.012  28.404  0.00  0.00    -0.273 OA
ATOM     18  N   ASN A   8      31.028  12.977  28.162  0.00  0.00    -0.298 N 
ATOM     19  H   ASN A   8      30.448  13.570  27.535  0.00  0.00    +0.150 HD
BRANCH  18  20
ATOM     20  CA  ASN A   8      31.319  13.457  29.502  0.00  0.00    +0.146 C 
BRANCH  20  21
ATOM     21  C   ASN A   8      30.552  12.911  30.680  0.00  0.00    +0.227 C 
ATOM     22  O   ASN A   8      29.523  12.250  30.543  0.00  0.00    -0.286 OA
ENDBRANCH  20  21
BRANCH  20  23
ATOM     23  CB  ASN A   8      31.148  14.977  29.543  0.00  0.00    +0.112 C 
BRANCH  23  24
ATOM     24  CG  ASN A   8      32.148  15.708  28.673  0.00  0.00    +0.222 C 
ATOM     25  ND2 ASN A   8      32.001  17.025  28.595  0.00  0.00    -0.329 N 
ATOM     26 HD21 ASN A   8      31.228  17.493  29.110  0.00  0.00    +0.145 HD
ATOM     27 HD22 ASN A   8      32.659  17.588  28.019  0.00  0.00    +0.145 HD
ATOM     28  OD1 ASN A   8      33.045  15.104  28.084  0.00  0.00    -0.275 OA
ENDBRANCH  23  24
ENDBRANCH  20  23
ENDBRANCH  18  20
ENDBRANCH  15  16
BRANCH  15  29
ATOM     29  CB  THR A   7      31.944  12.528  25.369  0.00  0.00    +0.137 C 
ATOM     30  CG2 THR A   7      33.412  12.547  25.780  0.00  0.00    +0.034 C 
BRANCH  29  31
ATOM     31  OG1 THR A   7      31.836  12.169  23.984  0.00  0.00    -0.382 OA
ATOM     32  HG1 THR A   7      30.884  12.184  23.714  0.00  0.00    +0.210 HD
ENDBRANCH  29  31
ENDBRANCH  15  29
ENDBRANCH  13  15
ENDBRANCH  10  11
BRANCH  10  33
ATOM     33  CB  THR A   6      26.559  11.276  27.056  0.00  0.00    +0.137 C 
ATOM     34  CG2 THR A   6      27.132  12.574  27.597  0.00  0.00    +0.034 C 
BRANCH  33  35
ATOM     35  OG1 THR A   6      25.228  11.516  26.579  0.00  0.00    -0.382 OA
ATOM     36  HG1 THR A   6      24.672  11.867  27.319  0.00  0.00    +0.210 HD
ENDBRANCH  33  35
ENDBRANCH  10  33
ENDBRANCH   7  10
ENDBRANCH   5   6
ENDBRANCH   2   5
BRANCH   1  37
ATOM     37  CA  SER A   4      27.553   5.305  26.580  0.00  0.00    +0.178 C 
BRANCH  37  40
ATOM     38  C   ASP A   3      26.237   6.522  28.226  0.00  0.00    +0.241 C 
ATOM     39  O   ASP A   3      27.008   7.477  28.187  0.00  0.00    -0.273 OA
ATOM     40  N   SER A   4      26.406   5.435  27.475  0.00  0.00    -0.295 N 
ATOM     41  H   SER A   4      25.709   4.665  27.527  0.00  0.00    +0.150 HD
BRANCH  38  42
ATOM     42  CA  ASP A   3      24.996   6.562  29.127  0.00  0.00    +0.160 C 
BRANCH  42  45
ATOM     43  C   VAL A   2      24.392   5.435  31.206  0.00  0.00    +0.241 C 
ATOM     44  O   VAL A   2      23.515   4.769  30.650  0.00  0.00    -0.273 OA
ATOM     45  N   ASP A   3      25.195   6.267  30.547  0.00  0.00    -0.297 N 
ATOM     46  H   ASP A   3      25.983   6.719  31.053  0.00  0.00    +0.150 HD
BRANCH  43  47
ATOM     47  CA  VAL A   2      24.613   5.312  32.715  0.00  0.00    +0.148 C 
BRANCH  47  50
ATOM     48  C   ILE A   1      23.252   7.069  33.779  0.00  0.00    +0.238 C 
ATOM     49  O   ILE A   1      24.209   7.830  33.913  0.00  0.00    -0.274 OA
ATOM     50  N   VAL A   2      23.357   5.849  33.253  0.00  0.00    -0.297 N 
ATOM     51  H   VAL A   2      22.508   5.249  33.222  0.00  0.00    +0.150 HD
BRANCH  48  52
ATOM     52  CA  ILE A   1      21.855   7.483  34.239  0.00  0.00    +0.145 C 
BRANCH  52  53
ATOM     53  CB  ILE A   1      21.021   7.867  32.986  0.00  0.00    +0.025 C 
ATOM     54  CG2 ILE A   1      19.624   8.332  33.395  0.00  0.00    +0.002 C 
BRANCH  53  55
ATOM     55  CG1 ILE A   1      21.733   8.983  32.214  0.00  0.00    +0.002 C 
ATOM     56  CD1 ILE A   1      21.049   9.373  30.902  0.00  0.00    +0.000 C 
ENDBRANCH  53  55
ENDBRANCH  52  53
BRANCH  52  57
ATOM     57  N   ILE A   1      21.871   8.579  35.205  0.00  0.00    -0.238 NA
ATOM     58  H   ILE A   1      22.463   9.415  35.028  0.00  0.00    +0.142 HD
ENDBRANCH  52  57
ENDBRANCH  48  52
ENDBRANCH  47  50
BRANCH  47  59
ATOM     59  CB  VAL A   2      24.797   3.833  33.099  0.00  0.00    +0.027 C 
ATOM     60  CG2 VAL A   2      24.756   3.685  34.623  0.00  0.00    +0.002 C 
ATOM     61  CG1 VAL A   2      26.111   3.308  32.532  0.00  0.00    +0.002 C 
ENDBRANCH  47  59
ENDBRANCH  43  47
ENDBRANCH  42  45
BRANCH  42  62
ATOM     62  CB  ASP A   3      24.353   7.950  29.059  0.00  0.00    +0.143 C 
BRANCH  62  63
ATOM     63  CG  ASP A   3      23.970   8.371  27.661  0.00  0.00    +0.367 C 
ATOM     64  OD2 ASP A   3      23.551   9.539  27.525  0.00  0.00    -0.246 OA
ATOM     65  OD1 ASP A   3      24.073   7.563  26.708  0.00  0.00    -0.246 OA
ENDBRANCH  62  63
ENDBRANCH  42  62
ENDBRANCH  38  42
ENDBRANCH  37  40
BRANCH  37  66
ATOM     66  CB  SER A   4      27.678   3.859  26.080  0.00  0.00    +0.166 C 
BRANCH  66  67
ATOM     67  OG  SER A   4      26.540   3.493  25.309  0.00  0.00    -0.380 OA
ATOM     68  H   SER A   4      26.464   4.097  24.528  0.00  0.00    +0.211 HD
ENDBRANCH  66  67
ENDBRANCH  37  66
ENDBRANCH   1  37
TORSDOF 29
REMARK  Name = ../refined-set-2016/3lpk/3lpk_pocket.pdb
REMARK  258 active torsions:
REMARK  status: ('A' for Active; 'I' for Inactive)
REMARK    1  A    between atoms: _1  and  _3
REMARK    2  A    between atoms: _3  and  _4
REMARK    3  A    between atoms: _3  and  _6
REMARK    4  A    between atoms: _6  and  _7
REMARK    5  A    between atoms: _7  and  _8
REMARK    6  A    between atoms: _8  and  _9
REMARK    7  A    between atoms: _9  and  _10
REMARK    8  A    between atoms: _14  and  _16
REMARK    9  A    between atoms: _16  and  _17
REMARK   10  A    between atoms: _16  and  _19
REMARK   11  A    between atoms: _19  and  _20
REMARK   12  A    between atoms: _22  and  _24
REMARK   13  A    between atoms: _24  and  _25
REMARK   14  A    between atoms: _27  and  _29
REMARK   15  A    between atoms: _29  and  _30
REMARK   16  A    between atoms: _29  and  _32
REMARK   17  A    between atoms: _32  and  _33
REMARK   18  A    between atoms: _33  and  _34
REMARK   19  A    between atoms: _39  and  _41
REMARK   20  A    between atoms: _41  and  _42
REMARK   21  A    between atoms: _44  and  _46
REMARK   22  A    between atoms: _46  and  _47
REMARK   23  A    between atoms: _46  and  _49
REMARK   24  A    between atoms: _49  and  _50
REMARK   25  A    between atoms: _55  and  _56
REMARK   26  A    between atoms: _58  and  _60
REMARK   27  A    between atoms: _60  and  _61
REMARK   28  A    between atoms: _60  and  _63
REMARK   29  A    between atoms: _63  and  _64
REMARK   30  A    between atoms: _67  and  _69
REMARK   31  A    between atoms: _69  and  _70
REMARK   32  A    between atoms: _69  and  _72
REMARK   33  A    between atoms: _75  and  _77
REMARK   34  A    between atoms: _77  and  _78
REMARK   35  A    between atoms: _77  and  _80
REMARK   36  A    between atoms: _80  and  _81
REMARK   37  A    between atoms: _84  and  _86
REMARK   38  A    between atoms: _86  and  _87
REMARK   39  A    between atoms: _86  and  _89
REMARK   40  A    between atoms: _89  and  _90
REMARK   41  A    between atoms: _93  and  _95
REMARK   42  A    between atoms: _95  and  _96
REMARK   43  A    between atoms: _98  and  _100
REMARK   44  A    between atoms: _100  and  _101
REMARK   45  A    between atoms: _100  and  _103
REMARK   46  A    between atoms: _103  and  _104
REMARK   47  A    between atoms: _106  and  _108
REMARK   48  A    between atoms: _108  and  _109
REMARK   49  A    between atoms: _108  and  _111
REMARK   50  A    between atoms: _111  and  _112
REMARK   51  A    between atoms: _114  and  _116
REMARK   52  A    between atoms: _116  and  _117
REMARK   53  A    between atoms: _116  and  _119
REMARK   54  A    between atoms: _119  and  _120
REMARK   55  A    between atoms: _125  and  _127
REMARK   56  A    between atoms: _127  and  _128
REMARK   57  A    between atoms: _127  and  _130
REMARK   58  A    between atoms: _130  and  _131
REMARK   59  A    between atoms: _136  and  _137
REMARK   60  A    between atoms: _139  and  _141
REMARK   61  A    between atoms: _141  and  _142
REMARK   62  A    between atoms: _141  and  _144
REMARK   63  A    between atoms: _148  and  _149
REMARK   64  A    between atoms: _154  and  _156
REMARK   65  A    between atoms: _156  and  _157
REMARK   66  A    between atoms: _156  and  _159
REMARK   67  A    between atoms: _159  and  _160
REMARK   68  A    between atoms: _165  and  _166
REMARK   69  A    between atoms: _168  and  _170
REMARK   70  A    between atoms: _170  and  _171
REMARK   71  A    between atoms: _170  and  _173
REMARK   72  A    between atoms: _173  and  _174
REMARK   73  A    between atoms: _177  and  _179
REMARK   74  A    between atoms: _179  and  _180
REMARK   75  A    between atoms: _179  and  _182
REMARK   76  A    between atoms: _182  and  _183
REMARK   77  A    between atoms: _183  and  _184
REMARK   78  A    between atoms: _189  and  _191
REMARK   79  A    between atoms: _191  and  _192
REMARK   80  A    between atoms: _194  and  _196
REMARK   81  A    between atoms: _196  and  _197
REMARK   82  A    between atoms: _196  and  _199
REMARK   83  A    between atoms: _199  and  _200
REMARK   84  A    between atoms: _200  and  _201
REMARK   85  A    between atoms: _201  and  _202
REMARK   86  A    between atoms: _202  and  _203
REMARK   87  A    between atoms: _207  and  _209
REMARK   88  A    between atoms: _209  and  _210
REMARK   89  A    between atoms: _209  and  _212
REMARK   90  A    between atoms: _212  and  _213
REMARK   91  A    between atoms: _223  and  _225
REMARK   92  A    between atoms: _225  and  _226
REMARK   93  A    between atoms: _225  and  _228
REMARK   94  A    between atoms: _228  and  _229
REMARK   95  A    between atoms: _232  and  _234
REMARK   96  A    between atoms: _234  and  _235
REMARK   97  A    between atoms: _234  and  _237
REMARK   98  A    between atoms: _237  and  _238
REMARK   99  A    between atoms: _238  and  _239
REMARK  100  A    between atoms: _239  and  _240
REMARK  101  A    between atoms: _240  and  _241
REMARK  102  A    between atoms: _245  and  _247
REMARK  103  A    between atoms: _247  and  _248
REMARK  104  A    between atoms: _247  and  _250
REMARK  105  A    between atoms: _250  and  _251
REMARK  106  A    between atoms: _257  and  _259
REMARK  107  A    between atoms: _259  and  _260
REMARK  108  A    between atoms: _259  and  _262
REMARK  109  A    between atoms: _262  and  _263
REMARK  110  A    between atoms: _269  and  _271
REMARK  111  A    between atoms: _271  and  _272
REMARK  112  A    between atoms: _271  and  _274
REMARK  113  A    between atoms: _274  and  _275
REMARK  114  A    between atoms: _278  and  _280
REMARK  115  A    between atoms: _280  and  _281
REMARK  116  A    between atoms: _280  and  _283
REMARK  117  A    between atoms: _283  and  _284
REMARK  118  A    between atoms: _286  and  _288
REMARK  119  A    between atoms: _288  and  _289
REMARK  120  A    between atoms: _288  and  _291
REMARK  121  A    between atoms: _291  and  _292
REMARK  122  A    between atoms: _302  and  _304
REMARK  123  A    between atoms: _304  and  _305
REMARK  124  A    between atoms: _307  and  _309
REMARK  125  A    between atoms: _309  and  _310
REMARK  126  A    between atoms: _309  and  _312
REMARK  127  A    between atoms: _312  and  _313
REMARK  128  A    between atoms: _316  and  _318
REMARK  129  A    between atoms: _318  and  _319
REMARK  130  A    between atoms: _318  and  _321
REMARK  131  A    between atoms: _321  and  _322
REMARK  132  A    between atoms: _325  and  _327
REMARK  133  A    between atoms: _327  and  _328
REMARK  134  A    between atoms: _330  and  _332
REMARK  135  A    between atoms: _332  and  _333
REMARK  136  A    between atoms: _332  and  _335
REMARK  137  A    between atoms: _335  and  _336
REMARK  138  A    between atoms: _339  and  _341
REMARK  139  A    between atoms: _341  and  _342
REMARK  140  A    between atoms: _345  and  _347
REMARK  141  A    between atoms: _347  and  _348
REMARK  142  A    between atoms: _347  and  _350
REMARK  143  A    between atoms: _350  and  _351
REMARK  144  A    between atoms: _356  and  _357
REMARK  145  A    between atoms: _359  and  _361
REMARK  146  A    between atoms: _361  and  _362
REMARK  147  A    between atoms: _361  and  _364
REMARK  148  A    between atoms: _364  and  _365
REMARK  149  A    between atoms: _365  and  _366
REMARK  150  A    between atoms: _369  and  _371
REMARK  151  A    between atoms: _371  and  _372
REMARK  152  A    between atoms: _371  and  _374
REMARK  153  A    between atoms: _374  and  _375
REMARK  154  A    between atoms: _378  and  _380
REMARK  155  A    between atoms: _380  and  _381
REMARK  156  A    between atoms: _384  and  _386
REMARK  157  A    between atoms: _386  and  _387
REMARK  158  A    between atoms: _386  and  _389
REMARK  159  A    between atoms: _389  and  _390
REMARK  160  A    between atoms: _390  and  _391
REMARK  161  A    between atoms: _391  and  _392
REMARK  162  A    between atoms: _401  and  _403
REMARK  163  A    between atoms: _403  and  _404
REMARK  164  A    between atoms: _403  and  _406
REMARK  165  A    between atoms: _406  and  _407
REMARK  166  A    between atoms: _417  and  _419
REMARK  167  A    between atoms: _419  and  _420
REMARK  168  A    between atoms: _419  and  _422
REMARK  169  A    between atoms: _422  and  _423
REMARK  170  A    between atoms: _428  and  _429
REMARK  171  A    between atoms: _431  and  _433
REMARK  172  A    between atoms: _433  and  _434
REMARK  173  A    between atoms: _433  and  _436
REMARK  174  A    between atoms: _436  and  _437
REMARK  175  A    between atoms: _442  and  _443
REMARK  176  A    between atoms: _445  and  _447
REMARK  177  A    between atoms: _447  and  _448
REMARK  178  A    between atoms: _447  and  _450
REMARK  179  A    between atoms: _450  and  _451
REMARK  180  A    between atoms: _451  and  _452
REMARK  181  A    between atoms: _452  and  _453
REMARK  182  A    between atoms: _453  and  _454
REMARK  183  A    between atoms: _458  and  _460
REMARK  184  A    between atoms: _460  and  _461
REMARK  185  A    between atoms: _460  and  _463
REMARK  186  A    between atoms: _463  and  _464
REMARK  187  A    between atoms: _467  and  _469
REMARK  188  A    between atoms: _469  and  _470
REMARK  189  A    between atoms: _469  and  _472
REMARK  190  A    between atoms: _475  and  _477
REMARK  191  A    between atoms: _477  and  _478
REMARK  192  A    between atoms: _477  and  _480
REMARK  193  A    between atoms: _480  and  _481
REMARK  194  A    between atoms: _484  and  _486
REMARK  195  A    between atoms: _486  and  _487
REMARK  196  A    between atoms: _486  and  _489
REMARK  197  A    between atoms: _489  and  _490
REMARK  198  A    between atoms: _492  and  _494
REMARK  199  A    between atoms: _494  and  _495
REMARK  200  A    between atoms: _497  and  _499
REMARK  201  A    between atoms: _499  and  _500
REMARK  202  A    between atoms: _499  and  _502
REMARK  203  A    between atoms: _502  and  _503
REMARK  204  A    between atoms: _506  and  _508
REMARK  205  A    between atoms: _508  and  _509
REMARK  206  A    between atoms: _508  and  _511
REMARK  207  A    between atoms: _511  and  _512
REMARK  208  A    between atoms: _515  and  _517
REMARK  209  A    between atoms: _517  and  _518
REMARK  210  A    between atoms: _517  and  _520
REMARK  211  A    between atoms: _520  and  _521
REMARK  212  A    between atoms: _526  and  _528
REMARK  213  A    between atoms: _528  and  _529
REMARK  214  A    between atoms: _528  and  _531
REMARK  215  A    between atoms: _531  and  _532
REMARK  216  A    between atoms: _532  and  _533
REMARK  217  A    between atoms: _533  and  _534
REMARK  218  A    between atoms: _543  and  _545
REMARK  219  A    between atoms: _545  and  _546
REMARK  220  A    between atoms: _545  and  _548
REMARK  221  A    between atoms: _548  and  _549
REMARK  222  A    between atoms: _549  and  _550
REMARK  223  A    between atoms: _550  and  _551
REMARK  224  A    between atoms: _560  and  _562
REMARK  225  A    between atoms: _562  and  _563
REMARK  226  A    between atoms: _562  and  _565
REMARK  227  A    between atoms: _565  and  _566
REMARK  228  A    between atoms: _568  and  _570
REMARK  229  A    between atoms: _570  and  _571
REMARK  230  A    between atoms: _570  and  _573
REMARK  231  A    between atoms: _573  and  _574
REMARK  232  A    between atoms: _574  and  _575
REMARK  233  A    between atoms: _580  and  _582
REMARK  234  A    between atoms: _582  and  _583
REMARK  235  A    between atoms: _582  and  _585
REMARK  236  A    between atoms: _585  and  _586
REMARK  237  A    between atoms: _588  and  _590
REMARK  238  A    between atoms: _590  and  _591
REMARK  239  A    between atoms: _590  and  _593
REMARK  240  A    between atoms: _593  and  _594
REMARK  241  A    between atoms: _596  and  _598
REMARK  242  A    between atoms: _598  and  _599
REMARK  243  A    between atoms: _598  and  _601
REMARK  244  A    between atoms: _601  and  _602
REMARK  245  A    between atoms: _605  and  _607
REMARK  246  A    between atoms: _607  and  _608
REMARK  247  A    between atoms: _607  and  _610
REMARK  248  A    between atoms: _610  and  _611
REMARK  249  A    between atoms: _614  and  _616
REMARK  250  A    between atoms: _616  and  _617
REMARK  251  A    between atoms: _616  and  _619
REMARK  252  A    between atoms: _622  and  _624
REMARK  253  A    between atoms: _624  and  _625
REMARK  254  A    between atoms: _627  and  _629
REMARK  255  A    between atoms: _629  and  _630
REMARK  256  A    between atoms: _633  and  _635
REMARK  257  A    between atoms: _635  and  _636
REMARK  258  A    between atoms: _635  and  _638
REMARK                            x       y       z     vdW  Elec       q    Type
REMARK                         _______ _______ _______ _____ _____    ______ ____
ROOT
ATOM      1  NE  ARG A   1      25.703  16.950  29.555  0.00  0.00    -0.265 N 
ATOM      2  HE  ARG A   1      26.400  17.714  29.660  0.00  0.00    +0.259 HD
ATOM      3  CZ  ARG A   1      24.432  17.289  29.376  0.00  0.00    +0.342 C 
ATOM      4  NH2 ARG A   1      24.090  18.570  29.339  0.00  0.00    -0.292 N 
ATOM      5 HH21 ARG A   1      24.817  19.306  29.450  0.00  0.00    +0.255 HD
ATOM      6 HH22 ARG A   1      23.095  18.839  29.199  0.00  0.00    +0.255 HD
ATOM      7  NH1 ARG A   1      23.503  16.349  29.239  0.00  0.00    -0.292 N 
ATOM      8 HH11 ARG A   1      23.771  15.345  29.272  0.00  0.00    +0.255 HD
ATOM      9 HH12 ARG A   1      22.508  16.618  29.099  0.00  0.00    +0.255 HD
ENDROOT
BRANCH   1  10
ATOM     10  CD  ARG A   1      26.184  15.574  29.614  0.00  0.00    +0.174 C 
BRANCH  10  11
ATOM     11  CG  ARG A   1      27.200  15.395  30.727  0.00  0.00    +0.045 C 
BRANCH  11  12
ATOM     12  CB  ARG A   1      26.566  15.537  32.112  0.00  0.00    +0.029 C 
BRANCH  12  13
ATOM     13  CA  ARG A   1      27.592  15.425  33.244  0.00  0.00    +0.133 C 
BRANCH  13  14
ATOM     14  N   ARG A   1      28.343  14.179  33.135  0.00  0.00    -0.239 NA
ATOM     15  H   ARG A   1      27.844  13.275  33.011  0.00  0.00    +0.142 HD
ENDBRANCH  13  14
BRANCH  13  16
ATOM     16  C   ARG A   1      26.926  15.454  34.608  0.00  0.00    +0.224 C 
ATOM     17  O   ARG A   1      26.364  14.452  35.063  0.00  0.00    -0.287 OA
ENDBRANCH  13  16
ENDBRANCH  12  13
ENDBRANCH  11  12
ENDBRANCH  10  11
ENDBRANCH   1  10
TORSDOF 6
REMARK  Name = ../refined-set-2016/3lpk/3lpk_pocket.pdb
REMARK  258 active torsions:
REMARK  status: ('A' for Active; 'I' for Inactive)
REMARK    1  A    between atoms: _1  and  _3
REMARK    2  A    between atoms: _3  and  _4
REMARK    3  A    between atoms: _3  and  _6
REMARK    4  A    between atoms: _6  and  _7
REMARK    5  A    between atoms: _7  and  _8
REMARK    6  A    between atoms: _8  and  _9
REMARK    7  A    between atoms: _9  and  _10
REMARK    8  A    between atoms: _14  and  _16
REMARK    9  A    between atoms: _16  and  _17
REMARK   10  A    between atoms: _16  and  _19
REMARK   11  A    between atoms: _19  and  _20
REMARK   12  A    between atoms: _22  and  _24
REMARK   13  A    between atoms: _24  and  _25
REMARK   14  A    between atoms: _27  and  _29
REMARK   15  A    between atoms: _29  and  _30
REMARK   16  A    between atoms: _29  and  _32
REMARK   17  A    between atoms: _32  and  _33
REMARK   18  A    between atoms: _33  and  _34
REMARK   19  A    between atoms: _39  and  _41
REMARK   20  A    between atoms: _41  and  _42
REMARK   21  A    between atoms: _44  and  _46
REMARK   22  A    between atoms: _46  and  _47
REMARK   23  A    between atoms: _46  and  _49
REMARK   24  A    between atoms: _49  and  _50
REMARK   25  A    between atoms: _55  and  _56
REMARK   26  A    between atoms: _58  and  _60
REMARK   27  A    between atoms: _60  and  _61
REMARK   28  A    between atoms: _60  and  _63
REMARK   29  A    between atoms: _63  and  _64
REMARK   30  A    between atoms: _67  and  _69
REMARK   31  A    between atoms: _69  and  _70
REMARK   32  A    between atoms: _69  and  _72
REMARK   33  A    between atoms: _75  and  _77
REMARK   34  A    between atoms: _77  and  _78
REMARK   35  A    between atoms: _77  and  _80
REMARK   36  A    between atoms: _80  and  _81
REMARK   37  A    between atoms: _84  and  _86
REMARK   38  A    between atoms: _86  and  _87
REMARK   39  A    between atoms: _86  and  _89
REMARK   40  A    between atoms: _89  and  _90
REMARK   41  A    between atoms: _93  and  _95
REMARK   42  A    between atoms: _95  and  _96
REMARK   43  A    between atoms: _98  and  _100
REMARK   44  A    between atoms: _100  and  _101
REMARK   45  A    between atoms: _100  and  _103
REMARK   46  A    between atoms: _103  and  _104
REMARK   47  A    between atoms: _106  and  _108
REMARK   48  A    between atoms: _108  and  _109
REMARK   49  A    between atoms: _108  and  _111
REMARK   50  A    between atoms: _111  and  _112
REMARK   51  A    between atoms: _114  and  _116
REMARK   52  A    between atoms: _116  and  _117
REMARK   53  A    between atoms: _116  and  _119
REMARK   54  A    between atoms: _119  and  _120
REMARK   55  A    between atoms: _125  and  _127
REMARK   56  A    between atoms: _127  and  _128
REMARK   57  A    between atoms: _127  and  _130
REMARK   58  A    between atoms: _130  and  _131
REMARK   59  A    between atoms: _136  and  _137
REMARK   60  A    between atoms: _139  and  _141
REMARK   61  A    between atoms: _141  and  _142
REMARK   62  A    between atoms: _141  and  _144
REMARK   63  A    between atoms: _148  and  _149
REMARK   64  A    between atoms: _154  and  _156
REMARK   65  A    between atoms: _156  and  _157
REMARK   66  A    between atoms: _156  and  _159
REMARK   67  A    between atoms: _159  and  _160
REMARK   68  A    between atoms: _165  and  _166
REMARK   69  A    between atoms: _168  and  _170
REMARK   70  A    between atoms: _170  and  _171
REMARK   71  A    between atoms: _170  and  _173
REMARK   72  A    between atoms: _173  and  _174
REMARK   73  A    between atoms: _177  and  _179
REMARK   74  A    between atoms: _179  and  _180
REMARK   75  A    between atoms: _179  and  _182
REMARK   76  A    between atoms: _182  and  _183
REMARK   77  A    between atoms: _183  and  _184
REMARK   78  A    between atoms: _189  and  _191
REMARK   79  A    between atoms: _191  and  _192
REMARK   80  A    between atoms: _194  and  _196
REMARK   81  A    between atoms: _196  and  _197
REMARK   82  A    between atoms: _196  and  _199
REMARK   83  A    between atoms: _199  and  _200
REMARK   84  A    between atoms: _200  and  _201
REMARK   85  A    between atoms: _201  and  _202
REMARK   86  A    between atoms: _202  and  _203
REMARK   87  A    between atoms: _207  and  _209
REMARK   88  A    between atoms: _209  and  _210
REMARK   89  A    between atoms: _209  and  _212
REMARK   90  A    between atoms: _212  and  _213
REMARK   91  A    between atoms: _223  and  _225
REMARK   92  A    between atoms: _225  and  _226
REMARK   93  A    between atoms: _225  and  _228
REMARK   94  A    between atoms: _228  and  _229
REMARK   95  A    between atoms: _232  and  _234
REMARK   96  A    between atoms: _234  and  _235
REMARK   97  A    between atoms: _234  and  _237
REMARK   98  A    between atoms: _237  and  _238
REMARK   99  A    between atoms: _238  and  _239
REMARK  100  A    between atoms: _239  and  _240
REMARK  101  A    between atoms: _240  and  _241
REMARK  102  A    between atoms: _245  and  _247
REMARK  103  A    between atoms: _247  and  _248
REMARK  104  A    between atoms: _247  and  _250
REMARK  105  A    between atoms: _250  and  _251
REMARK  106  A    between atoms: _257  and  _259
REMARK  107  A    between atoms: _259  and  _260
REMARK  108  A    between atoms: _259  and  _262
REMARK  109  A    between atoms: _262  and  _263
REMARK  110  A    between atoms: _269  and  _271
REMARK  111  A    between atoms: _271  and  _272
REMARK  112  A    between atoms: _271  and  _274
REMARK  113  A    between atoms: _274  and  _275
REMARK  114  A    between atoms: _278  and  _280
REMARK  115  A    between atoms: _280  and  _281
REMARK  116  A    between atoms: _280  and  _283
REMARK  117  A    between atoms: _283  and  _284
REMARK  118  A    between atoms: _286  and  _288
REMARK  119  A    between atoms: _288  and  _289
REMARK  120  A    between atoms: _288  and  _291
REMARK  121  A    between atoms: _291  and  _292
REMARK  122  A    between atoms: _302  and  _304
REMARK  123  A    between atoms: _304  and  _305
REMARK  124  A    between atoms: _307  and  _309
REMARK  125  A    between atoms: _309  and  _310
REMARK  126  A    between atoms: _309  and  _312
REMARK  127  A    between atoms: _312  and  _313
REMARK  128  A    between atoms: _316  and  _318
REMARK  129  A    between atoms: _318  and  _319
REMARK  130  A    between atoms: _318  and  _321
REMARK  131  A    between atoms: _321  and  _322
REMARK  132  A    between atoms: _325  and  _327
REMARK  133  A    between atoms: _327  and  _328
REMARK  134  A    between atoms: _330  and  _332
REMARK  135  A    between atoms: _332  and  _333
REMARK  136  A    between atoms: _332  and  _335
REMARK  137  A    between atoms: _335  and  _336
REMARK  138  A    between atoms: _339  and  _341
REMARK  139  A    between atoms: _341  and  _342
REMARK  140  A    between atoms: _345  and  _347
REMARK  141  A    between atoms: _347  and  _348
REMARK  142  A    between atoms: _347  and  _350
REMARK  143  A    between atoms: _350  and  _351
REMARK  144  A    between atoms: _356  and  _357
REMARK  145  A    between atoms: _359  and  _361
REMARK  146  A    between atoms: _361  and  _362
REMARK  147  A    between atoms: _361  and  _364
REMARK  148  A    between atoms: _364  and  _365
REMARK  149  A    between atoms: _365  and  _366
REMARK  150  A    between atoms: _369  and  _371
REMARK  151  A    between atoms: _371  and  _372
REMARK  152  A    between atoms: _371  and  _374
REMARK  153  A    between atoms: _374  and  _375
REMARK  154  A    between atoms: _378  and  _380
REMARK  155  A    between atoms: _380  and  _381
REMARK  156  A    between atoms: _384  and  _386
REMARK  157  A    between atoms: _386  and  _387
REMARK  158  A    between atoms: _386  and  _389
REMARK  159  A    between atoms: _389  and  _390
REMARK  160  A    between atoms: _390  and  _391
REMARK  161  A    between atoms: _391  and  _392
REMARK  162  A    between atoms: _401  and  _403
REMARK  163  A    between atoms: _403  and  _404
REMARK  164  A    between atoms: _403  and  _406
REMARK  165  A    between atoms: _406  and  _407
REMARK  166  A    between atoms: _417  and  _419
REMARK  167  A    between atoms: _419  and  _420
REMARK  168  A    between atoms: _419  and  _422
REMARK  169  A    between atoms: _422  and  _423
REMARK  170  A    between atoms: _428  and  _429
REMARK  171  A    between atoms: _431  and  _433
REMARK  172  A    between atoms: _433  and  _434
REMARK  173  A    between atoms: _433  and  _436
REMARK  174  A    between atoms: _436  and  _437
REMARK  175  A    between atoms: _442  and  _443
REMARK  176  A    between atoms: _445  and  _447
REMARK  177  A    between atoms: _447  and  _448
REMARK  178  A    between atoms: _447  and  _450
REMARK  179  A    between atoms: _450  and  _451
REMARK  180  A    between atoms: _451  and  _452
REMARK  181  A    between atoms: _452  and  _453
REMARK  182  A    between atoms: _453  and  _454
REMARK  183  A    between atoms: _458  and  _460
REMARK  184  A    between atoms: _460  and  _461
REMARK  185  A    between atoms: _460  and  _463
REMARK  186  A    between atoms: _463  and  _464
REMARK  187  A    between atoms: _467  and  _469
REMARK  188  A    between atoms: _469  and  _470
REMARK  189  A    between atoms: _469  and  _472
REMARK  190  A    between atoms: _475  and  _477
REMARK  191  A    between atoms: _477  and  _478
REMARK  192  A    between atoms: _477  and  _480
REMARK  193  A    between atoms: _480  and  _481
REMARK  194  A    between atoms: _484  and  _486
REMARK  195  A    between atoms: _486  and  _487
REMARK  196  A    between atoms: _486  and  _489
REMARK  197  A    between atoms: _489  and  _490
REMARK  198  A    between atoms: _492  and  _494
REMARK  199  A    between atoms: _494  and  _495
REMARK  200  A    between atoms: _497  and  _499
REMARK  201  A    between atoms: _499  and  _500
REMARK  202  A    between atoms: _499  and  _502
REMARK  203  A    between atoms: _502  and  _503
REMARK  204  A    between atoms: _506  and  _508
REMARK  205  A    between atoms: _508  and  _509
REMARK  206  A    between atoms: _508  and  _511
REMARK  207  A    between atoms: _511  and  _512
REMARK  208  A    between atoms: _515  and  _517
REMARK  209  A    between atoms: _517  and  _518
REMARK  210  A    between atoms: _517  and  _520
REMARK  211  A    between atoms: _520  and  _521
REMARK  212  A    between atoms: _526  and  _528
REMARK  213  A    between atoms: _528  and  _529
REMARK  214  A    between atoms: _528  and  _531
REMARK  215  A    between atoms: _531  and  _532
REMARK  216  A    between atoms: _532  and  _533
REMARK  217  A    between atoms: _533  and  _534
REMARK  218  A    between atoms: _543  and  _545
REMARK  219  A    between atoms: _545  and  _546
REMARK  220  A    between atoms: _545  and  _548
REMARK  221  A    between atoms: _548  and  _549
REMARK  222  A    between atoms: _549  and  _550
REMARK  223  A    between atoms: _550  and  _551
REMARK  224  A    between atoms: _560  and  _562
REMARK  225  A    between atoms: _562  and  _563
REMARK  226  A    between atoms: _562  and  _565
REMARK  227  A    between atoms: _565  and  _566
REMARK  228  A    between atoms: _568  and  _570
REMARK  229  A    between atoms: _570  and  _571
REMARK  230  A    between atoms: _570  and  _573
REMARK  231  A    between atoms: _573  and  _574
REMARK  232  A    between atoms: _574  and  _575
REMARK  233  A    between atoms: _580  and  _582
REMARK  234  A    between atoms: _582  and  _583
REMARK  235  A    between atoms: _582  and  _585
REMARK  236  A    between atoms: _585  and  _586
REMARK  237  A    between atoms: _588  and  _590
REMARK  238  A    between atoms: _590  and  _591
REMARK  239  A    between atoms: _590  and  _593
REMARK  240  A    between atoms: _593  and  _594
REMARK  241  A    between atoms: _596  and  _598
REMARK  242  A    between atoms: _598  and  _599
REMARK  243  A    between atoms: _598  and  _601
REMARK  244  A    between atoms: _601  and  _602
REMARK  245  A    between atoms: _605  and  _607
REMARK  246  A    between atoms: _607  and  _608
REMARK  247  A    between atoms: _607  and  _610
REMARK  248  A    between atoms: _610  and  _611
REMARK  249  A    between atoms: _614  and  _616
REMARK  250  A    between atoms: _616  and  _617
REMARK  251  A    between atoms: _616  and  _619
REMARK  252  A    between atoms: _622  and  _624
REMARK  253  A    between atoms: _624  and  _625
REMARK  254  A    between atoms: _627  and  _629
REMARK  255  A    between atoms: _629  and  _630
REMARK  256  A    between atoms: _633  and  _635
REMARK  257  A    between atoms: _635  and  _636
REMARK  258  A    between atoms: _635  and  _638
REMARK                            x       y       z     vdW  Elec       q    Type
REMARK                         _______ _______ _______ _____ _____    ______ ____
ROOT
ATOM      1  NE  ARG A   1      36.630  14.402  25.005  0.00  0.00    -0.265 N 
ATOM      2  HE  ARG A   1      36.119  14.961  25.717  0.00  0.00    +0.259 HD
ATOM      3  CZ  ARG A   1      36.896  14.981  23.836  0.00  0.00    +0.342 C 
ATOM      4  NH2 ARG A   1      36.502  16.227  23.610  0.00  0.00    -0.292 N 
ATOM      5 HH21 ARG A   1      35.986  16.751  24.346  0.00  0.00    +0.255 HD
ATOM      6 HH22 ARG A   1      36.709  16.680  22.697  0.00  0.00    +0.255 HD
ATOM      7  NH1 ARG A   1      37.544  14.317  22.885  0.00  0.00    -0.292 N 
ATOM      8 HH11 ARG A   1      37.848  13.336  23.050  0.00  0.00    +0.255 HD
ATOM      9 HH12 ARG A   1      37.747  14.778  21.975  0.00  0.00    +0.255 HD
ENDROOT
BRANCH   1  10
ATOM     10  CD  ARG A   1      37.008  13.031  25.357  0.00  0.00    +0.174 C 
BRANCH  10  11
ATOM     11  CG  ARG A   1      38.467  12.903  25.781  0.00  0.00    +0.045 C 
BRANCH  11  12
ATOM     12  CB  ARG A   1      38.722  13.674  27.062  0.00  0.00    +0.029 C 
BRANCH  12  13
ATOM     13  CA  ARG A   1      40.084  13.418  27.725  0.00  0.00    +0.133 C 
BRANCH  13  14
ATOM     14  N   ARG A   1      40.121  14.099  29.017  0.00  0.00    -0.239 NA
ATOM     15  H   ARG A   1      39.584  14.981  29.137  0.00  0.00    +0.142 HD
ENDBRANCH  13  14
BRANCH  13  16
ATOM     16  C   ARG A   1      41.216  13.849  26.799  0.00  0.00    +0.224 C 
ATOM     17  O   ARG A   1      41.363  15.025  26.492  0.00  0.00    -0.287 OA
ENDBRANCH  13  16
ENDBRANCH  12  13
ENDBRANCH  11  12
ENDBRANCH  10  11
ENDBRANCH   1  10
TORSDOF 6
REMARK  Name = ../refined-set-2016/3lpk/3lpk_pocket.pdb
REMARK  258 active torsions:
REMARK  status: ('A' for Active; 'I' for Inactive)
REMARK    1  A    between atoms: _1  and  _3
REMARK    2  A    between atoms: _3  and  _4
REMARK    3  A    between atoms: _3  and  _6
REMARK    4  A    between atoms: _6  and  _7
REMARK    5  A    between atoms: _7  and  _8
REMARK    6  A    between atoms: _8  and  _9
REMARK    7  A    between atoms: _9  and  _10
REMARK    8  A    between atoms: _14  and  _16
REMARK    9  A    between atoms: _16  and  _17
REMARK   10  A    between atoms: _16  and  _19
REMARK   11  A    between atoms: _19  and  _20
REMARK   12  A    between atoms: _22  and  _24
REMARK   13  A    between atoms: _24  and  _25
REMARK   14  A    between atoms: _27  and  _29
REMARK   15  A    between atoms: _29  and  _30
REMARK   16  A    between atoms: _29  and  _32
REMARK   17  A    between atoms: _32  and  _33
REMARK   18  A    between atoms: _33  and  _34
REMARK   19  A    between atoms: _39  and  _41
REMARK   20  A    between atoms: _41  and  _42
REMARK   21  A    between atoms: _44  and  _46
REMARK   22  A    between atoms: _46  and  _47
REMARK   23  A    between atoms: _46  and  _49
REMARK   24  A    between atoms: _49  and  _50
REMARK   25  A    between atoms: _55  and  _56
REMARK   26  A    between atoms: _58  and  _60
REMARK   27  A    between atoms: _60  and  _61
REMARK   28  A    between atoms: _60  and  _63
REMARK   29  A    between atoms: _63  and  _64
REMARK   30  A    between atoms: _67  and  _69
REMARK   31  A    between atoms: _69  and  _70
REMARK   32  A    between atoms: _69  and  _72
REMARK   33  A    between atoms: _75  and  _77
REMARK   34  A    between atoms: _77  and  _78
REMARK   35  A    between atoms: _77  and  _80
REMARK   36  A    between atoms: _80  and  _81
REMARK   37  A    between atoms: _84  and  _86
REMARK   38  A    between atoms: _86  and  _87
REMARK   39  A    between atoms: _86  and  _89
REMARK   40  A    between atoms: _89  and  _90
REMARK   41  A    between atoms: _93  and  _95
REMARK   42  A    between atoms: _95  and  _96
REMARK   43  A    between atoms: _98  and  _100
REMARK   44  A    between atoms: _100  and  _101
REMARK   45  A    between atoms: _100  and  _103
REMARK   46  A    between atoms: _103  and  _104
REMARK   47  A    between atoms: _106  and  _108
REMARK   48  A    between atoms: _108  and  _109
REMARK   49  A    between atoms: _108  and  _111
REMARK   50  A    between atoms: _111  and  _112
REMARK   51  A    between atoms: _114  and  _116
REMARK   52  A    between atoms: _116  and  _117
REMARK   53  A    between atoms: _116  and  _119
REMARK   54  A    between atoms: _119  and  _120
REMARK   55  A    between atoms: _125  and  _127
REMARK   56  A    between atoms: _127  and  _128
REMARK   57  A    between atoms: _127  and  _130
REMARK   58  A    between atoms: _130  and  _131
REMARK   59  A    between atoms: _136  and  _137
REMARK   60  A    between atoms: _139  and  _141
REMARK   61  A    between atoms: _141  and  _142
REMARK   62  A    between atoms: _141  and  _144
REMARK   63  A    between atoms: _148  and  _149
REMARK   64  A    between atoms: _154  and  _156
REMARK   65  A    between atoms: _156  and  _157
REMARK   66  A    between atoms: _156  and  _159
REMARK   67  A    between atoms: _159  and  _160
REMARK   68  A    between atoms: _165  and  _166
REMARK   69  A    between atoms: _168  and  _170
REMARK   70  A    between atoms: _170  and  _171
REMARK   71  A    between atoms: _170  and  _173
REMARK   72  A    between atoms: _173  and  _174
REMARK   73  A    between atoms: _177  and  _179
REMARK   74  A    between atoms: _179  and  _180
REMARK   75  A    between atoms: _179  and  _182
REMARK   76  A    between atoms: _182  and  _183
REMARK   77  A    between atoms: _183  and  _184
REMARK   78  A    between atoms: _189  and  _191
REMARK   79  A    between atoms: _191  and  _192
REMARK   80  A    between atoms: _194  and  _196
REMARK   81  A    between atoms: _196  and  _197
REMARK   82  A    between atoms: _196  and  _199
REMARK   83  A    between atoms: _199  and  _200
REMARK   84  A    between atoms: _200  and  _201
REMARK   85  A    between atoms: _201  and  _202
REMARK   86  A    between atoms: _202  and  _203
REMARK   87  A    between atoms: _207  and  _209
REMARK   88  A    between atoms: _209  and  _210
REMARK   89  A    between atoms: _209  and  _212
REMARK   90  A    between atoms: _212  and  _213
REMARK   91  A    between atoms: _223  and  _225
REMARK   92  A    between atoms: _225  and  _226
REMARK   93  A    between atoms: _225  and  _228
REMARK   94  A    between atoms: _228  and  _229
REMARK   95  A    between atoms: _232  and  _234
REMARK   96  A    between atoms: _234  and  _235
REMARK   97  A    between atoms: _234  and  _237
REMARK   98  A    between atoms: _237  and  _238
REMARK   99  A    between atoms: _238  and  _239
REMARK  100  A    between atoms: _239  and  _240
REMARK  101  A    between atoms: _240  and  _241
REMARK  102  A    between atoms: _245  and  _247
REMARK  103  A    between atoms: _247  and  _248
REMARK  104  A    between atoms: _247  and  _250
REMARK  105  A    between atoms: _250  and  _251
REMARK  106  A    between atoms: _257  and  _259
REMARK  107  A    between atoms: _259  and  _260
REMARK  108  A    between atoms: _259  and  _262
REMARK  109  A    between atoms: _262  and  _263
REMARK  110  A    between atoms: _269  and  _271
REMARK  111  A    between atoms: _271  and  _272
REMARK  112  A    between atoms: _271  and  _274
REMARK  113  A    between atoms: _274  and  _275
REMARK  114  A    between atoms: _278  and  _280
REMARK  115  A    between atoms: _280  and  _281
REMARK  116  A    between atoms: _280  and  _283
REMARK  117  A    between atoms: _283  and  _284
REMARK  118  A    between atoms: _286  and  _288
REMARK  119  A    between atoms: _288  and  _289
REMARK  120  A    between atoms: _288  and  _291
REMARK  121  A    between atoms: _291  and  _292
REMARK  122  A    between atoms: _302  and  _304
REMARK  123  A    between atoms: _304  and  _305
REMARK  124  A    between atoms: _307  and  _309
REMARK  125  A    between atoms: _309  and  _310
REMARK  126  A    between atoms: _309  and  _312
REMARK  127  A    between atoms: _312  and  _313
REMARK  128  A    between atoms: _316  and  _318
REMARK  129  A    between atoms: _318  and  _319
REMARK  130  A    between atoms: _318  and  _321
REMARK  131  A    between atoms: _321  and  _322
REMARK  132  A    between atoms: _325  and  _327
REMARK  133  A    between atoms: _327  and  _328
REMARK  134  A    between atoms: _330  and  _332
REMARK  135  A    between atoms: _332  and  _333
REMARK  136  A    between atoms: _332  and  _335
REMARK  137  A    between atoms: _335  and  _336
REMARK  138  A    between atoms: _339  and  _341
REMARK  139  A    between atoms: _341  and  _342
REMARK  140  A    between atoms: _345  and  _347
REMARK  141  A    between atoms: _347  and  _348
REMARK  142  A    between atoms: _347  and  _350
REMARK  143  A    between atoms: _350  and  _351
REMARK  144  A    between atoms: _356  and  _357
REMARK  145  A    between atoms: _359  and  _361
REMARK  146  A    between atoms: _361  and  _362
REMARK  147  A    between atoms: _361  and  _364
REMARK  148  A    between atoms: _364  and  _365
REMARK  149  A    between atoms: _365  and  _366
REMARK  150  A    between atoms: _369  and  _371
REMARK  151  A    between atoms: _371  and  _372
REMARK  152  A    between atoms: _371  and  _374
REMARK  153  A    between atoms: _374  and  _375
REMARK  154  A    between atoms: _378  and  _380
REMARK  155  A    between atoms: _380  and  _381
REMARK  156  A    between atoms: _384  and  _386
REMARK  157  A    between atoms: _386  and  _387
REMARK  158  A    between atoms: _386  and  _389
REMARK  159  A    between atoms: _389  and  _390
REMARK  160  A    between atoms: _390  and  _391
REMARK  161  A    between atoms: _391  and  _392
REMARK  162  A    between atoms: _401  and  _403
REMARK  163  A    between atoms: _403  and  _404
REMARK  164  A    between atoms: _403  and  _406
REMARK  165  A    between atoms: _406  and  _407
REMARK  166  A    between atoms: _417  and  _419
REMARK  167  A    between atoms: _419  and  _420
REMARK  168  A    between atoms: _419  and  _422
REMARK  169  A    between atoms: _422  and  _423
REMARK  170  A    between atoms: _428  and  _429
REMARK  171  A    between atoms: _431  and  _433
REMARK  172  A    between atoms: _433  and  _434
REMARK  173  A    between atoms: _433  and  _436
REMARK  174  A    between atoms: _436  and  _437
REMARK  175  A    between atoms: _442  and  _443
REMARK  176  A    between atoms: _445  and  _447
REMARK  177  A    between atoms: _447  and  _448
REMARK  178  A    between atoms: _447  and  _450
REMARK  179  A    between atoms: _450  and  _451
REMARK  180  A    between atoms: _451  and  _452
REMARK  181  A    between atoms: _452  and  _453
REMARK  182  A    between atoms: _453  and  _454
REMARK  183  A    between atoms: _458  and  _460
REMARK  184  A    between atoms: _460  and  _461
REMARK  185  A    between atoms: _460  and  _463
REMARK  186  A    between atoms: _463  and  _464
REMARK  187  A    between atoms: _467  and  _469
REMARK  188  A    between atoms: _469  and  _470
REMARK  189  A    between atoms: _469  and  _472
REMARK  190  A    between atoms: _475  and  _477
REMARK  191  A    between atoms: _477  and  _478
REMARK  192  A    between atoms: _477  and  _480
REMARK  193  A    between atoms: _480  and  _481
REMARK  194  A    between atoms: _484  and  _486
REMARK  195  A    between atoms: _486  and  _487
REMARK  196  A    between atoms: _486  and  _489
REMARK  197  A    between atoms: _489  and  _490
REMARK  198  A    between atoms: _492  and  _494
REMARK  199  A    between atoms: _494  and  _495
REMARK  200  A    between atoms: _497  and  _499
REMARK  201  A    between atoms: _499  and  _500
REMARK  202  A    between atoms: _499  and  _502
REMARK  203  A    between atoms: _502  and  _503
REMARK  204  A    between atoms: _506  and  _508
REMARK  205  A    between atoms: _508  and  _509
REMARK  206  A    between atoms: _508  and  _511
REMARK  207  A    between atoms: _511  and  _512
REMARK  208  A    between atoms: _515  and  _517
REMARK  209  A    between atoms: _517  and  _518
REMARK  210  A    between atoms: _517  and  _520
REMARK  211  A    between atoms: _520  and  _521
REMARK  212  A    between atoms: _526  and  _528
REMARK  213  A    between atoms: _528  and  _529
REMARK  214  A    between atoms: _528  and  _531
REMARK  215  A    between atoms: _531  and  _532
REMARK  216  A    between atoms: _532  and  _533
REMARK  217  A    between atoms: _533  and  _534
REMARK  218  A    between atoms: _543  and  _545
REMARK  219  A    between atoms: _545  and  _546
REMARK  220  A    between atoms: _545  and  _548
REMARK  221  A    between atoms: _548  and  _549
REMARK  222  A    between atoms: _549  and  _550
REMARK  223  A    between atoms: _550  and  _551
REMARK  224  A    between atoms: _560  and  _562
REMARK  225  A    between atoms: _562  and  _563
REMARK  226  A    between atoms: _562  and  _565
REMARK  227  A    between atoms: _565  and  _566
REMARK  228  A    between atoms: _568  and  _570
REMARK  229  A    between atoms: _570  and  _571
REMARK  230  A    between atoms: _570  and  _573
REMARK  231  A    between atoms: _573  and  _574
REMARK  232  A    between atoms: _574  and  _575
REMARK  233  A    between atoms: _580  and  _582
REMARK  234  A    between atoms: _582  and  _583
REMARK  235  A    between atoms: _582  and  _585
REMARK  236  A    between atoms: _585  and  _586
REMARK  237  A    between atoms: _588  and  _590
REMARK  238  A    between atoms: _590  and  _591
REMARK  239  A    between atoms: _590  and  _593
REMARK  240  A    between atoms: _593  and  _594
REMARK  241  A    between atoms: _596  and  _598
REMARK  242  A    between atoms: _598  and  _599
REMARK  243  A    between atoms: _598  and  _601
REMARK  244  A    between atoms: _601  and  _602
REMARK  245  A    between atoms: _605  and  _607
REMARK  246  A    between atoms: _607  and  _608
REMARK  247  A    between atoms: _607  and  _610
REMARK  248  A    between atoms: _610  and  _611
REMARK  249  A    between atoms: _614  and  _616
REMARK  250  A    between atoms: _616  and  _617
REMARK  251  A    between atoms: _616  and  _619
REMARK  252  A    between atoms: _622  and  _624
REMARK  253  A    between atoms: _624  and  _625
REMARK  254  A    between atoms: _627  and  _629
REMARK  255  A    between atoms: _629  and  _630
REMARK  256  A    between atoms: _633  and  _635
REMARK  257  A    between atoms: _635  and  _636
REMARK  258  A    between atoms: _635  and  _638
REMARK                            x       y       z     vdW  Elec       q    Type
REMARK                         _______ _______ _______ _____ _____    ______ ____
ROOT
ATOM      1  CA  SER A   3      23.595  19.240  32.973  0.00  0.00    +0.178 C 
ENDROOT
BRANCH   1   3
ATOM      2  C   GLN A   2      25.829  20.209  32.898  0.00  0.00    +0.241 C 
ATOM      3  N   SER A   3      24.806  19.738  33.593  0.00  0.00    -0.295 N 
ATOM      4  H   SER A   3      24.874  19.725  34.631  0.00  0.00    +0.150 HD
ATOM      5  O   GLN A   2      25.854  20.278  31.665  0.00  0.00    -0.273 OA
BRANCH   2   6
ATOM      6  CA  GLN A   2      26.998  20.647  33.748  0.00  0.00    +0.149 C 
BRANCH   6   9
ATOM      7  C   SER A   1      28.939  19.438  33.103  0.00  0.00    +0.241 C 
ATOM      8  O   SER A   1      28.481  18.430  33.646  0.00  0.00    -0.274 OA
ATOM      9  N   GLN A   2      28.280  20.589  33.078  0.00  0.00    -0.297 N 
ATOM     10  H   GLN A   2      28.671  21.422  32.593  0.00  0.00    +0.150 HD
BRANCH   7  11
ATOM     11  CA  SER A   1      30.299  19.406  32.430  0.00  0.00    +0.174 C 
BRANCH  11  12
ATOM     12  N   SER A   1      31.035  18.192  32.761  0.00  0.00    -0.236 NA
ATOM     13  H   SER A   1      30.529  17.289  32.866  0.00  0.00    +0.142 HD
ENDBRANCH  11  12
BRANCH  11  14
ATOM     14  CB  SER A   1      30.150  19.534  30.913  0.00  0.00    +0.163 C 
BRANCH  14  15
ATOM     15  OG  SER A   1      29.595  18.365  30.350  0.00  0.00    -0.380 OA
ATOM     16  H   SER A   1      29.512  18.479  29.370  0.00  0.00    +0.211 HD
ENDBRANCH  14  15
ENDBRANCH  11  14
ENDBRANCH   7  11
ENDBRANCH   6   9
BRANCH   6  17
ATOM     17  CB  GLN A   2      26.736  22.029  34.353  0.00  0.00    +0.039 C 
BRANCH  17  18
ATOM     18  CG  GLN A   2      26.526  23.164  33.399  0.00  0.00    +0.087 C 
BRANCH  18  19
ATOM     19  CD  GLN A   2      26.081  24.415  34.136  0.00  0.00    +0.219 C 
ATOM     20  OE1 GLN A   2      24.969  24.477  34.655  0.00  0.00    -0.275 OA
ATOM     21  NE2 GLN A   2      26.955  25.411  34.200  0.00  0.00    -0.329 N 
ATOM     22 HE21 GLN A   2      26.709  26.287  34.704  0.00  0.00    +0.145 HD
ATOM     23 HE22 GLN A   2      27.886  25.316  33.746  0.00  0.00    +0.145 HD
ENDBRANCH  18  19
ENDBRANCH  17  18
ENDBRANCH   6  17
ENDBRANCH   2   6
ENDBRANCH   1   3
BRANCH   1  24
ATOM     24  C   SER A   3      22.376  19.871  33.625  0.00  0.00    +0.243 C 
ATOM     25  O   SER A   3      22.420  20.272  34.790  0.00  0.00    -0.273 OA
ATOM     26  N   SER A   4      21.288  19.953  32.866  0.00  0.00    -0.295 N 
ATOM     27  H   SER A   4      21.330  19.631  31.878  0.00  0.00    +0.150 HD
BRANCH  26  28
ATOM     28  CA  SER A   4      20.039  20.484  33.390  0.00  0.00    +0.178 C 
BRANCH  28  29
ATOM     29  C   SER A   4      19.039  19.333  33.347  0.00  0.00    +0.243 C 
ATOM     30  O   SER A   4      17.844  19.524  33.575  0.00  0.00    -0.273 OA
ATOM     31  N   THR A   5      19.543  18.133  33.055  0.00  0.00    -0.296 N 
ATOM     32  H   THR A   5      20.564  18.041  32.881  0.00  0.00    +0.150 HD
BRANCH  31  33
ATOM     33  CA  THR A   5      18.697  16.944  32.974  0.00  0.00    +0.164 C 
BRANCH  33  34
ATOM     34  CB  THR A   5      18.538  16.481  31.507  0.00  0.00    +0.136 C 
ATOM     35  CG2 THR A   5      17.878  17.581  30.669  0.00  0.00    +0.034 C 
BRANCH  34  36
ATOM     36  OG1 THR A   5      19.825  16.177  30.957  0.00  0.00    -0.382 OA
ATOM     37  HG1 THR A   5      20.247  15.455  31.487  0.00  0.00    +0.210 HD
ENDBRANCH  34  36
ENDBRANCH  33  34
BRANCH  33  38
ATOM     38  C   THR A   5      19.209  15.775  33.818  0.00  0.00    +0.229 C 
ATOM     39  O   THR A   5      19.015  14.604  33.467  0.00  0.00    -0.286 OA
ENDBRANCH  33  38
ENDBRANCH  31  33
ENDBRANCH  28  29
BRANCH  28  40
ATOM     40  CB  SER A   4      19.540  21.652  32.532  0.00  0.00    +0.166 C 
BRANCH  40  41
ATOM     41  OG  SER A   4      19.321  21.242  31.194  0.00  0.00    -0.380 OA
ATOM     42  H   SER A   4      19.000  22.013  30.662  0.00  0.00    +0.211 HD
ENDBRANCH  40  41
ENDBRANCH  28  40
ENDBRANCH  26  28
ENDBRANCH   1  24
BRANCH   1  43
ATOM     43  CB  SER A   3      23.530  17.722  33.153  0.00  0.00    +0.166 C 
BRANCH  43  44
ATOM     44  OG  SER A   3      22.234  17.218  32.895  0.00  0.00    -0.380 OA
ATOM     45  H   SER A   3      22.232  16.236  33.021  0.00  0.00    +0.211 HD
ENDBRANCH  43  44
ENDBRANCH   1  43
TORSDOF 21
REMARK  Name = ../refined-set-2016/3lpk/3lpk_pocket.pdb
REMARK  258 active torsions:
REMARK  status: ('A' for Active; 'I' for Inactive)
REMARK    1  A    between atoms: _1  and  _3
REMARK    2  A    between atoms: _3  and  _4
REMARK    3  A    between atoms: _3  and  _6
REMARK    4  A    between atoms: _6  and  _7
REMARK    5  A    between atoms: _7  and  _8
REMARK    6  A    between atoms: _8  and  _9
REMARK    7  A    between atoms: _9  and  _10
REMARK    8  A    between atoms: _14  and  _16
REMARK    9  A    between atoms: _16  and  _17
REMARK   10  A    between atoms: _16  and  _19
REMARK   11  A    between atoms: _19  and  _20
REMARK   12  A    between atoms: _22  and  _24
REMARK   13  A    between atoms: _24  and  _25
REMARK   14  A    between atoms: _27  and  _29
REMARK   15  A    between atoms: _29  and  _30
REMARK   16  A    between atoms: _29  and  _32
REMARK   17  A    between atoms: _32  and  _33
REMARK   18  A    between atoms: _33  and  _34
REMARK   19  A    between atoms: _39  and  _41
REMARK   20  A    between atoms: _41  and  _42
REMARK   21  A    between atoms: _44  and  _46
REMARK   22  A    between atoms: _46  and  _47
REMARK   23  A    between atoms: _46  and  _49
REMARK   24  A    between atoms: _49  and  _50
REMARK   25  A    between atoms: _55  and  _56
REMARK   26  A    between atoms: _58  and  _60
REMARK   27  A    between atoms: _60  and  _61
REMARK   28  A    between atoms: _60  and  _63
REMARK   29  A    between atoms: _63  and  _64
REMARK   30  A    between atoms: _67  and  _69
REMARK   31  A    between atoms: _69  and  _70
REMARK   32  A    between atoms: _69  and  _72
REMARK   33  A    between atoms: _75  and  _77
REMARK   34  A    between atoms: _77  and  _78
REMARK   35  A    between atoms: _77  and  _80
REMARK   36  A    between atoms: _80  and  _81
REMARK   37  A    between atoms: _84  and  _86
REMARK   38  A    between atoms: _86  and  _87
REMARK   39  A    between atoms: _86  and  _89
REMARK   40  A    between atoms: _89  and  _90
REMARK   41  A    between atoms: _93  and  _95
REMARK   42  A    between atoms: _95  and  _96
REMARK   43  A    between atoms: _98  and  _100
REMARK   44  A    between atoms: _100  and  _101
REMARK   45  A    between atoms: _100  and  _103
REMARK   46  A    between atoms: _103  and  _104
REMARK   47  A    between atoms: _106  and  _108
REMARK   48  A    between atoms: _108  and  _109
REMARK   49  A    between atoms: _108  and  _111
REMARK   50  A    between atoms: _111  and  _112
REMARK   51  A    between atoms: _114  and  _116
REMARK   52  A    between atoms: _116  and  _117
REMARK   53  A    between atoms: _116  and  _119
REMARK   54  A    between atoms: _119  and  _120
REMARK   55  A    between atoms: _125  and  _127
REMARK   56  A    between atoms: _127  and  _128
REMARK   57  A    between atoms: _127  and  _130
REMARK   58  A    between atoms: _130  and  _131
REMARK   59  A    between atoms: _136  and  _137
REMARK   60  A    between atoms: _139  and  _141
REMARK   61  A    between atoms: _141  and  _142
REMARK   62  A    between atoms: _141  and  _144
REMARK   63  A    between atoms: _148  and  _149
REMARK   64  A    between atoms: _154  and  _156
REMARK   65  A    between atoms: _156  and  _157
REMARK   66  A    between atoms: _156  and  _159
REMARK   67  A    between atoms: _159  and  _160
REMARK   68  A    between atoms: _165  and  _166
REMARK   69  A    between atoms: _168  and  _170
REMARK   70  A    between atoms: _170  and  _171
REMARK   71  A    between atoms: _170  and  _173
REMARK   72  A    between atoms: _173  and  _174
REMARK   73  A    between atoms: _177  and  _179
REMARK   74  A    between atoms: _179  and  _180
REMARK   75  A    between atoms: _179  and  _182
REMARK   76  A    between atoms: _182  and  _183
REMARK   77  A    between atoms: _183  and  _184
REMARK   78  A    between atoms: _189  and  _191
REMARK   79  A    between atoms: _191  and  _192
REMARK   80  A    between atoms: _194  and  _196
REMARK   81  A    between atoms: _196  and  _197
REMARK   82  A    between atoms: _196  and  _199
REMARK   83  A    between atoms: _199  and  _200
REMARK   84  A    between atoms: _200  and  _201
REMARK   85  A    between atoms: _201  and  _202
REMARK   86  A    between atoms: _202  and  _203
REMARK   87  A    between atoms: _207  and  _209
REMARK   88  A    between atoms: _209  and  _210
REMARK   89  A    between atoms: _209  and  _212
REMARK   90  A    between atoms: _212  and  _213
REMARK   91  A    between atoms: _223  and  _225
REMARK   92  A    between atoms: _225  and  _226
REMARK   93  A    between atoms: _225  and  _228
REMARK   94  A    between atoms: _228  and  _229
REMARK   95  A    between atoms: _232  and  _234
REMARK   96  A    between atoms: _234  and  _235
REMARK   97  A    between atoms: _234  and  _237
REMARK   98  A    between atoms: _237  and  _238
REMARK   99  A    between atoms: _238  and  _239
REMARK  100  A    between atoms: _239  and  _240
REMARK  101  A    between atoms: _240  and  _241
REMARK  102  A    between atoms: _245  and  _247
REMARK  103  A    between atoms: _247  and  _248
REMARK  104  A    between atoms: _247  and  _250
REMARK  105  A    between atoms: _250  and  _251
REMARK  106  A    between atoms: _257  and  _259
REMARK  107  A    between atoms: _259  and  _260
REMARK  108  A    between atoms: _259  and  _262
REMARK  109  A    between atoms: _262  and  _263
REMARK  110  A    between atoms: _269  and  _271
REMARK  111  A    between atoms: _271  and  _272
REMARK  112  A    between atoms: _271  and  _274
REMARK  113  A    between atoms: _274  and  _275
REMARK  114  A    between atoms: _278  and  _280
REMARK  115  A    between atoms: _280  and  _281
REMARK  116  A    between atoms: _280  and  _283
REMARK  117  A    between atoms: _283  and  _284
REMARK  118  A    between atoms: _286  and  _288
REMARK  119  A    between atoms: _288  and  _289
REMARK  120  A    between atoms: _288  and  _291
REMARK  121  A    between atoms: _291  and  _292
REMARK  122  A    between atoms: _302  and  _304
REMARK  123  A    between atoms: _304  and  _305
REMARK  124  A    between atoms: _307  and  _309
REMARK  125  A    between atoms: _309  and  _310
REMARK  126  A    between atoms: _309  and  _312
REMARK  127  A    between atoms: _312  and  _313
REMARK  128  A    between atoms: _316  and  _318
REMARK  129  A    between atoms: _318  and  _319
REMARK  130  A    between atoms: _318  and  _321
REMARK  131  A    between atoms: _321  and  _322
REMARK  132  A    between atoms: _325  and  _327
REMARK  133  A    between atoms: _327  and  _328
REMARK  134  A    between atoms: _330  and  _332
REMARK  135  A    between atoms: _332  and  _333
REMARK  136  A    between atoms: _332  and  _335
REMARK  137  A    between atoms: _335  and  _336
REMARK  138  A    between atoms: _339  and  _341
REMARK  139  A    between atoms: _341  and  _342
REMARK  140  A    between atoms: _345  and  _347
REMARK  141  A    between atoms: _347  and  _348
REMARK  142  A    between atoms: _347  and  _350
REMARK  143  A    between atoms: _350  and  _351
REMARK  144  A    between atoms: _356  and  _357
REMARK  145  A    between atoms: _359  and  _361
REMARK  146  A    between atoms: _361  and  _362
REMARK  147  A    between atoms: _361  and  _364
REMARK  148  A    between atoms: _364  and  _365
REMARK  149  A    between atoms: _365  and  _366
REMARK  150  A    between atoms: _369  and  _371
REMARK  151  A    between atoms: _371  and  _372
REMARK  152  A    between atoms: _371  and  _374
REMARK  153  A    between atoms: _374  and  _375
REMARK  154  A    between atoms: _378  and  _380
REMARK  155  A    between atoms: _380  and  _381
REMARK  156  A    between atoms: _384  and  _386
REMARK  157  A    between atoms: _386  and  _387
REMARK  158  A    between atoms: _386  and  _389
REMARK  159  A    between atoms: _389  and  _390
REMARK  160  A    between atoms: _390  and  _391
REMARK  161  A    between atoms: _391  and  _392
REMARK  162  A    between atoms: _401  and  _403
REMARK  163  A    between atoms: _403  and  _404
REMARK  164  A    between atoms: _403  and  _406
REMARK  165  A    between atoms: _406  and  _407
REMARK  166  A    between atoms: _417  and  _419
REMARK  167  A    between atoms: _419  and  _420
REMARK  168  A    between atoms: _419  and  _422
REMARK  169  A    between atoms: _422  and  _423
REMARK  170  A    between atoms: _428  and  _429
REMARK  171  A    between atoms: _431  and  _433
REMARK  172  A    between atoms: _433  and  _434
REMARK  173  A    between atoms: _433  and  _436
REMARK  174  A    between atoms: _436  and  _437
REMARK  175  A    between atoms: _442  and  _443
REMARK  176  A    between atoms: _445  and  _447
REMARK  177  A    between atoms: _447  and  _448
REMARK  178  A    between atoms: _447  and  _450
REMARK  179  A    between atoms: _450  and  _451
REMARK  180  A    between atoms: _451  and  _452
REMARK  181  A    between atoms: _452  and  _453
REMARK  182  A    between atoms: _453  and  _454
REMARK  183  A    between atoms: _458  and  _460
REMARK  184  A    between atoms: _460  and  _461
REMARK  185  A    between atoms: _460  and  _463
REMARK  186  A    between atoms: _463  and  _464
REMARK  187  A    between atoms: _467  and  _469
REMARK  188  A    between atoms: _469  and  _470
REMARK  189  A    between atoms: _469  and  _472
REMARK  190  A    between atoms: _475  and  _477
REMARK  191  A    between atoms: _477  and  _478
REMARK  192  A    between atoms: _477  and  _480
REMARK  193  A    between atoms: _480  and  _481
REMARK  194  A    between atoms: _484  and  _486
REMARK  195  A    between atoms: _486  and  _487
REMARK  196  A    between atoms: _486  and  _489
REMARK  197  A    between atoms: _489  and  _490
REMARK  198  A    between atoms: _492  and  _494
REMARK  199  A    between atoms: _494  and  _495
REMARK  200  A    between atoms: _497  and  _499
REMARK  201  A    between atoms: _499  and  _500
REMARK  202  A    between atoms: _499  and  _502
REMARK  203  A    between atoms: _502  and  _503
REMARK  204  A    between atoms: _506  and  _508
REMARK  205  A    between atoms: _508  and  _509
REMARK  206  A    between atoms: _508  and  _511
REMARK  207  A    between atoms: _511  and  _512
REMARK  208  A    between atoms: _515  and  _517
REMARK  209  A    between atoms: _517  and  _518
REMARK  210  A    between atoms: _517  and  _520
REMARK  211  A    between atoms: _520  and  _521
REMARK  212  A    between atoms: _526  and  _528
REMARK  213  A    between atoms: _528  and  _529
REMARK  214  A    between atoms: _528  and  _531
REMARK  215  A    between atoms: _531  and  _532
REMARK  216  A    between atoms: _532  and  _533
REMARK  217  A    between atoms: _533  and  _534
REMARK  218  A    between atoms: _543  and  _545
REMARK  219  A    between atoms: _545  and  _546
REMARK  220  A    between atoms: _545  and  _548
REMARK  221  A    between atoms: _548  and  _549
REMARK  222  A    between atoms: _549  and  _550
REMARK  223  A    between atoms: _550  and  _551
REMARK  224  A    between atoms: _560  and  _562
REMARK  225  A    between atoms: _562  and  _563
REMARK  226  A    between atoms: _562  and  _565
REMARK  227  A    between atoms: _565  and  _566
REMARK  228  A    between atoms: _568  and  _570
REMARK  229  A    between atoms: _570  and  _571
REMARK  230  A    between atoms: _570  and  _573
REMARK  231  A    between atoms: _573  and  _574
REMARK  232  A    between atoms: _574  and  _575
REMARK  233  A    between atoms: _580  and  _582
REMARK  234  A    between atoms: _582  and  _583
REMARK  235  A    between atoms: _582  and  _585
REMARK  236  A    between atoms: _585  and  _586
REMARK  237  A    between atoms: _588  and  _590
REMARK  238  A    between atoms: _590  and  _591
REMARK  239  A    between atoms: _590  and  _593
REMARK  240  A    between atoms: _593  and  _594
REMARK  241  A    between atoms: _596  and  _598
REMARK  242  A    between atoms: _598  and  _599
REMARK  243  A    between atoms: _598  and  _601
REMARK  244  A    between atoms: _601  and  _602
REMARK  245  A    between atoms: _605  and  _607
REMARK  246  A    between atoms: _607  and  _608
REMARK  247  A    between atoms: _607  and  _610
REMARK  248  A    between atoms: _610  and  _611
REMARK  249  A    between atoms: _614  and  _616
REMARK  250  A    between atoms: _616  and  _617
REMARK  251  A    between atoms: _616  and  _619
REMARK  252  A    between atoms: _622  and  _624
REMARK  253  A    between atoms: _624  and  _625
REMARK  254  A    between atoms: _627  and  _629
REMARK  255  A    between atoms: _629  and  _630
REMARK  256  A    between atoms: _633  and  _635
REMARK  257  A    between atoms: _635  and  _636
REMARK  258  A    between atoms: _635  and  _638
REMARK                            x       y       z     vdW  Elec       q    Type
REMARK                         _______ _______ _______ _____ _____    ______ ____
ROOT
ATOM      1  C   THR A   1      23.700  12.187  35.006  0.00  0.00    +0.241 C 
ATOM      2  O   THR A   1      22.795  11.376  34.801  0.00  0.00    -0.274 OA
ATOM      3  N   VAL A   2      24.767  12.288  34.223  0.00  0.00    -0.298 N 
ATOM      4  H   VAL A   2      25.480  13.018  34.423  0.00  0.00    +0.150 HD
ENDROOT
BRANCH   1   5
ATOM      5  CA  THR A   1      23.628  13.154  36.181  0.00  0.00    +0.172 C 
BRANCH   5   6
ATOM      6  N   THR A   1      22.273  13.664  36.334  0.00  0.00    -0.236 NA
ATOM      7  H   THR A   1      21.665  13.278  37.085  0.00  0.00    +0.142 HD
ENDBRANCH   5   6
BRANCH   5   8
ATOM      8  CB  THR A   1      24.081  12.429  37.465  0.00  0.00    +0.135 C 
ATOM      9  CG2 THR A   1      25.431  11.750  37.263  0.00  0.00    +0.034 C 
BRANCH   8  10
ATOM     10  OG1 THR A   1      24.183  13.382  38.527  0.00  0.00    -0.383 OA
ATOM     11  HG1 THR A   1      24.474  12.923  39.354  0.00  0.00    +0.210 HD
ENDBRANCH   8  10
ENDBRANCH   5   8
ENDBRANCH   1   5
BRANCH   3  12
ATOM     12  CA  VAL A   2      24.956  11.396  33.091  0.00  0.00    +0.137 C 
BRANCH  12  13
ATOM     13  CB  VAL A   2      24.870  12.152  31.744  0.00  0.00    +0.026 C 
ATOM     14  CG2 VAL A   2      23.507  12.810  31.594  0.00  0.00    +0.002 C 
ATOM     15  CG1 VAL A   2      25.122  11.182  30.585  0.00  0.00    +0.002 C 
ENDBRANCH  12  13
BRANCH  12  16
ATOM     16  C   VAL A   2      26.335  10.764  33.215  0.00  0.00    +0.227 C 
ATOM     17  O   VAL A   2      27.347  11.447  33.075  0.00  0.00    -0.286 OA
ENDBRANCH  12  16
ENDBRANCH   3  12
TORSDOF 7
REMARK  Name = ../refined-set-2016/3lpk/3lpk_pocket.pdb
REMARK  258 active torsions:
REMARK  status: ('A' for Active; 'I' for Inactive)
REMARK    1  A    between atoms: _1  and  _3
REMARK    2  A    between atoms: _3  and  _4
REMARK    3  A    between atoms: _3  and  _6
REMARK    4  A    between atoms: _6  and  _7
REMARK    5  A    between atoms: _7  and  _8
REMARK    6  A    between atoms: _8  and  _9
REMARK    7  A    between atoms: _9  and  _10
REMARK    8  A    between atoms: _14  and  _16
REMARK    9  A    between atoms: _16  and  _17
REMARK   10  A    between atoms: _16  and  _19
REMARK   11  A    between atoms: _19  and  _20
REMARK   12  A    between atoms: _22  and  _24
REMARK   13  A    between atoms: _24  and  _25
REMARK   14  A    between atoms: _27  and  _29
REMARK   15  A    between atoms: _29  and  _30
REMARK   16  A    between atoms: _29  and  _32
REMARK   17  A    between atoms: _32  and  _33
REMARK   18  A    between atoms: _33  and  _34
REMARK   19  A    between atoms: _39  and  _41
REMARK   20  A    between atoms: _41  and  _42
REMARK   21  A    between atoms: _44  and  _46
REMARK   22  A    between atoms: _46  and  _47
REMARK   23  A    between atoms: _46  and  _49
REMARK   24  A    between atoms: _49  and  _50
REMARK   25  A    between atoms: _55  and  _56
REMARK   26  A    between atoms: _58  and  _60
REMARK   27  A    between atoms: _60  and  _61
REMARK   28  A    between atoms: _60  and  _63
REMARK   29  A    between atoms: _63  and  _64
REMARK   30  A    between atoms: _67  and  _69
REMARK   31  A    between atoms: _69  and  _70
REMARK   32  A    between atoms: _69  and  _72
REMARK   33  A    between atoms: _75  and  _77
REMARK   34  A    between atoms: _77  and  _78
REMARK   35  A    between atoms: _77  and  _80
REMARK   36  A    between atoms: _80  and  _81
REMARK   37  A    between atoms: _84  and  _86
REMARK   38  A    between atoms: _86  and  _87
REMARK   39  A    between atoms: _86  and  _89
REMARK   40  A    between atoms: _89  and  _90
REMARK   41  A    between atoms: _93  and  _95
REMARK   42  A    between atoms: _95  and  _96
REMARK   43  A    between atoms: _98  and  _100
REMARK   44  A    between atoms: _100  and  _101
REMARK   45  A    between atoms: _100  and  _103
REMARK   46  A    between atoms: _103  and  _104
REMARK   47  A    between atoms: _106  and  _108
REMARK   48  A    between atoms: _108  and  _109
REMARK   49  A    between atoms: _108  and  _111
REMARK   50  A    between atoms: _111  and  _112
REMARK   51  A    between atoms: _114  and  _116
REMARK   52  A    between atoms: _116  and  _117
REMARK   53  A    between atoms: _116  and  _119
REMARK   54  A    between atoms: _119  and  _120
REMARK   55  A    between atoms: _125  and  _127
REMARK   56  A    between atoms: _127  and  _128
REMARK   57  A    between atoms: _127  and  _130
REMARK   58  A    between atoms: _130  and  _131
REMARK   59  A    between atoms: _136  and  _137
REMARK   60  A    between atoms: _139  and  _141
REMARK   61  A    between atoms: _141  and  _142
REMARK   62  A    between atoms: _141  and  _144
REMARK   63  A    between atoms: _148  and  _149
REMARK   64  A    between atoms: _154  and  _156
REMARK   65  A    between atoms: _156  and  _157
REMARK   66  A    between atoms: _156  and  _159
REMARK   67  A    between atoms: _159  and  _160
REMARK   68  A    between atoms: _165  and  _166
REMARK   69  A    between atoms: _168  and  _170
REMARK   70  A    between atoms: _170  and  _171
REMARK   71  A    between atoms: _170  and  _173
REMARK   72  A    between atoms: _173  and  _174
REMARK   73  A    between atoms: _177  and  _179
REMARK   74  A    between atoms: _179  and  _180
REMARK   75  A    between atoms: _179  and  _182
REMARK   76  A    between atoms: _182  and  _183
REMARK   77  A    between atoms: _183  and  _184
REMARK   78  A    between atoms: _189  and  _191
REMARK   79  A    between atoms: _191  and  _192
REMARK   80  A    between atoms: _194  and  _196
REMARK   81  A    between atoms: _196  and  _197
REMARK   82  A    between atoms: _196  and  _199
REMARK   83  A    between atoms: _199  and  _200
REMARK   84  A    between atoms: _200  and  _201
REMARK   85  A    between atoms: _201  and  _202
REMARK   86  A    between atoms: _202  and  _203
REMARK   87  A    between atoms: _207  and  _209
REMARK   88  A    between atoms: _209  and  _210
REMARK   89  A    between atoms: _209  and  _212
REMARK   90  A    between atoms: _212  and  _213
REMARK   91  A    between atoms: _223  and  _225
REMARK   92  A    between atoms: _225  and  _226
REMARK   93  A    between atoms: _225  and  _228
REMARK   94  A    between atoms: _228  and  _229
REMARK   95  A    between atoms: _232  and  _234
REMARK   96  A    between atoms: _234  and  _235
REMARK   97  A    between atoms: _234  and  _237
REMARK   98  A    between atoms: _237  and  _238
REMARK   99  A    between atoms: _238  and  _239
REMARK  100  A    between atoms: _239  and  _240
REMARK  101  A    between atoms: _240  and  _241
REMARK  102  A    between atoms: _245  and  _247
REMARK  103  A    between atoms: _247  and  _248
REMARK  104  A    between atoms: _247  and  _250
REMARK  105  A    between atoms: _250  and  _251
REMARK  106  A    between atoms: _257  and  _259
REMARK  107  A    between atoms: _259  and  _260
REMARK  108  A    between atoms: _259  and  _262
REMARK  109  A    between atoms: _262  and  _263
REMARK  110  A    between atoms: _269  and  _271
REMARK  111  A    between atoms: _271  and  _272
REMARK  112  A    between atoms: _271  and  _274
REMARK  113  A    between atoms: _274  and  _275
REMARK  114  A    between atoms: _278  and  _280
REMARK  115  A    between atoms: _280  and  _281
REMARK  116  A    between atoms: _280  and  _283
REMARK  117  A    between atoms: _283  and  _284
REMARK  118  A    between atoms: _286  and  _288
REMARK  119  A    between atoms: _288  and  _289
REMARK  120  A    between atoms: _288  and  _291
REMARK  121  A    between atoms: _291  and  _292
REMARK  122  A    between atoms: _302  and  _304
REMARK  123  A    between atoms: _304  and  _305
REMARK  124  A    between atoms: _307  and  _309
REMARK  125  A    between atoms: _309  and  _310
REMARK  126  A    between atoms: _309  and  _312
REMARK  127  A    between atoms: _312  and  _313
REMARK  128  A    between atoms: _316  and  _318
REMARK  129  A    between atoms: _318  and  _319
REMARK  130  A    between atoms: _318  and  _321
REMARK  131  A    between atoms: _321  and  _322
REMARK  132  A    between atoms: _325  and  _327
REMARK  133  A    between atoms: _327  and  _328
REMARK  134  A    between atoms: _330  and  _332
REMARK  135  A    between atoms: _332  and  _333
REMARK  136  A    between atoms: _332  and  _335
REMARK  137  A    between atoms: _335  and  _336
REMARK  138  A    between atoms: _339  and  _341
REMARK  139  A    between atoms: _341  and  _342
REMARK  140  A    between atoms: _345  and  _347
REMARK  141  A    between atoms: _347  and  _348
REMARK  142  A    between atoms: _347  and  _350
REMARK  143  A    between atoms: _350  and  _351
REMARK  144  A    between atoms: _356  and  _357
REMARK  145  A    between atoms: _359  and  _361
REMARK  146  A    between atoms: _361  and  _362
REMARK  147  A    between atoms: _361  and  _364
REMARK  148  A    between atoms: _364  and  _365
REMARK  149  A    between atoms: _365  and  _366
REMARK  150  A    between atoms: _369  and  _371
REMARK  151  A    between atoms: _371  and  _372
REMARK  152  A    between atoms: _371  and  _374
REMARK  153  A    between atoms: _374  and  _375
REMARK  154  A    between atoms: _378  and  _380
REMARK  155  A    between atoms: _380  and  _381
REMARK  156  A    between atoms: _384  and  _386
REMARK  157  A    between atoms: _386  and  _387
REMARK  158  A    between atoms: _386  and  _389
REMARK  159  A    between atoms: _389  and  _390
REMARK  160  A    between atoms: _390  and  _391
REMARK  161  A    between atoms: _391  and  _392
REMARK  162  A    between atoms: _401  and  _403
REMARK  163  A    between atoms: _403  and  _404
REMARK  164  A    between atoms: _403  and  _406
REMARK  165  A    between atoms: _406  and  _407
REMARK  166  A    between atoms: _417  and  _419
REMARK  167  A    between atoms: _419  and  _420
REMARK  168  A    between atoms: _419  and  _422
REMARK  169  A    between atoms: _422  and  _423
REMARK  170  A    between atoms: _428  and  _429
REMARK  171  A    between atoms: _431  and  _433
REMARK  172  A    between atoms: _433  and  _434
REMARK  173  A    between atoms: _433  and  _436
REMARK  174  A    between atoms: _436  and  _437
REMARK  175  A    between atoms: _442  and  _443
REMARK  176  A    between atoms: _445  and  _447
REMARK  177  A    between atoms: _447  and  _448
REMARK  178  A    between atoms: _447  and  _450
REMARK  179  A    between atoms: _450  and  _451
REMARK  180  A    between atoms: _451  and  _452
REMARK  181  A    between atoms: _452  and  _453
REMARK  182  A    between atoms: _453  and  _454
REMARK  183  A    between atoms: _458  and  _460
REMARK  184  A    between atoms: _460  and  _461
REMARK  185  A    between atoms: _460  and  _463
REMARK  186  A    between atoms: _463  and  _464
REMARK  187  A    between atoms: _467  and  _469
REMARK  188  A    between atoms: _469  and  _470
REMARK  189  A    between atoms: _469  and  _472
REMARK  190  A    between atoms: _475  and  _477
REMARK  191  A    between atoms: _477  and  _478
REMARK  192  A    between atoms: _477  and  _480
REMARK  193  A    between atoms: _480  and  _481
REMARK  194  A    between atoms: _484  and  _486
REMARK  195  A    between atoms: _486  and  _487
REMARK  196  A    between atoms: _486  and  _489
REMARK  197  A    between atoms: _489  and  _490
REMARK  198  A    between atoms: _492  and  _494
REMARK  199  A    between atoms: _494  and  _495
REMARK  200  A    between atoms: _497  and  _499
REMARK  201  A    between atoms: _499  and  _500
REMARK  202  A    between atoms: _499  and  _502
REMARK  203  A    between atoms: _502  and  _503
REMARK  204  A    between atoms: _506  and  _508
REMARK  205  A    between atoms: _508  and  _509
REMARK  206  A    between atoms: _508  and  _511
REMARK  207  A    between atoms: _511  and  _512
REMARK  208  A    between atoms: _515  and  _517
REMARK  209  A    between atoms: _517  and  _518
REMARK  210  A    between atoms: _517  and  _520
REMARK  211  A    between atoms: _520  and  _521
REMARK  212  A    between atoms: _526  and  _528
REMARK  213  A    between atoms: _528  and  _529
REMARK  214  A    between atoms: _528  and  _531
REMARK  215  A    between atoms: _531  and  _532
REMARK  216  A    between atoms: _532  and  _533
REMARK  217  A    between atoms: _533  and  _534
REMARK  218  A    between atoms: _543  and  _545
REMARK  219  A    between atoms: _545  and  _546
REMARK  220  A    between atoms: _545  and  _548
REMARK  221  A    between atoms: _548  and  _549
REMARK  222  A    between atoms: _549  and  _550
REMARK  223  A    between atoms: _550  and  _551
REMARK  224  A    between atoms: _560  and  _562
REMARK  225  A    between atoms: _562  and  _563
REMARK  226  A    between atoms: _562  and  _565
REMARK  227  A    between atoms: _565  and  _566
REMARK  228  A    between atoms: _568  and  _570
REMARK  229  A    between atoms: _570  and  _571
REMARK  230  A    between atoms: _570  and  _573
REMARK  231  A    between atoms: _573  and  _574
REMARK  232  A    between atoms: _574  and  _575
REMARK  233  A    between atoms: _580  and  _582
REMARK  234  A    between atoms: _582  and  _583
REMARK  235  A    between atoms: _582  and  _585
REMARK  236  A    between atoms: _585  and  _586
REMARK  237  A    between atoms: _588  and  _590
REMARK  238  A    between atoms: _590  and  _591
REMARK  239  A    between atoms: _590  and  _593
REMARK  240  A    between atoms: _593  and  _594
REMARK  241  A    between atoms: _596  and  _598
REMARK  242  A    between atoms: _598  and  _599
REMARK  243  A    between atoms: _598  and  _601
REMARK  244  A    between atoms: _601  and  _602
REMARK  245  A    between atoms: _605  and  _607
REMARK  246  A    between atoms: _607  and  _608
REMARK  247  A    between atoms: _607  and  _610
REMARK  248  A    between atoms: _610  and  _611
REMARK  249  A    between atoms: _614  and  _616
REMARK  250  A    between atoms: _616  and  _617
REMARK  251  A    between atoms: _616  and  _619
REMARK  252  A    between atoms: _622  and  _624
REMARK  253  A    between atoms: _624  and  _625
REMARK  254  A    between atoms: _627  and  _629
REMARK  255  A    between atoms: _629  and  _630
REMARK  256  A    between atoms: _633  and  _635
REMARK  257  A    between atoms: _635  and  _636
REMARK  258  A    between atoms: _635  and  _638
REMARK                            x       y       z     vdW  Elec       q    Type
REMARK                         _______ _______ _______ _____ _____    ______ ____
ROOT
ATOM      1  C   ALA A   2      33.167   7.398  28.971  0.00  0.00    +0.241 C 
ATOM      2  N   VAL A   3      33.553   8.626  29.315  0.00  0.00    -0.298 N 
ATOM      3  H   VAL A   3      32.964   9.451  29.081  0.00  0.00    +0.150 HD
ATOM      4  O   ALA A   2      33.835   6.401  29.243  0.00  0.00    -0.273 OA
ENDROOT
BRANCH   1   5
ATOM      5  CA  ALA A   2      31.858   7.240  28.209  0.00  0.00    +0.149 C 
ATOM      6  CB  ALA A   2      32.105   7.450  26.720  0.00  0.00    +0.031 C 
BRANCH   5   9
ATOM      7  C   GLY A   1      30.316   8.109  29.898  0.00  0.00    +0.240 C 
ATOM      8  O   GLY A   1      30.800   7.439  30.807  0.00  0.00    -0.274 OA
ATOM      9  N   ALA A   2      30.764   8.089  28.648  0.00  0.00    -0.297 N 
ATOM     10  H   ALA A   2      30.310   8.711  27.950  0.00  0.00    +0.150 HD
BRANCH   7  11
ATOM     11  CA  GLY A   1      29.149   9.037  30.141  0.00  0.00    +0.169 C 
BRANCH  11  12
ATOM     12  N   GLY A   1      28.759   9.257  31.519  0.00  0.00    -0.236 NA
ATOM     13  H   GLY A   1      29.053  10.133  31.997  0.00  0.00    +0.142 HD
ENDBRANCH  11  12
ENDBRANCH   7  11
ENDBRANCH   5   9
ENDBRANCH   1   5
BRANCH   2  14
ATOM     14  CA  VAL A   3      34.821   8.794  30.029  0.00  0.00    +0.137 C 
BRANCH  14  15
ATOM     15  CB  VAL A   3      35.225  10.291  30.174  0.00  0.00    +0.026 C 
ATOM     16  CG2 VAL A   3      34.193  11.057  30.999  0.00  0.00    +0.002 C 
ATOM     17  CG1 VAL A   3      35.392  10.909  28.781  0.00  0.00    +0.002 C 
ENDBRANCH  14  15
BRANCH  14  18
ATOM     18  C   VAL A   3      34.784   8.114  31.394  0.00  0.00    +0.227 C 
ATOM     19  O   VAL A   3      35.816   7.692  31.905  0.00  0.00    -0.286 OA
ENDBRANCH  14  18
ENDBRANCH   2  14
TORSDOF 7
REMARK  Name = ../refined-set-2016/3lpk/3lpk_pocket.pdb
REMARK  258 active torsions:
REMARK  status: ('A' for Active; 'I' for Inactive)
REMARK    1  A    between atoms: _1  and  _3
REMARK    2  A    between atoms: _3  and  _4
REMARK    3  A    between atoms: _3  and  _6
REMARK    4  A    between atoms: _6  and  _7
REMARK    5  A    between atoms: _7  and  _8
REMARK    6  A    between atoms: _8  and  _9
REMARK    7  A    between atoms: _9  and  _10
REMARK    8  A    between atoms: _14  and  _16
REMARK    9  A    between atoms: _16  and  _17
REMARK   10  A    between atoms: _16  and  _19
REMARK   11  A    between atoms: _19  and  _20
REMARK   12  A    between atoms: _22  and  _24
REMARK   13  A    between atoms: _24  and  _25
REMARK   14  A    between atoms: _27  and  _29
REMARK   15  A    between atoms: _29  and  _30
REMARK   16  A    between atoms: _29  and  _32
REMARK   17  A    between atoms: _32  and  _33
REMARK   18  A    between atoms: _33  and  _34
REMARK   19  A    between atoms: _39  and  _41
REMARK   20  A    between atoms: _41  and  _42
REMARK   21  A    between atoms: _44  and  _46
REMARK   22  A    between atoms: _46  and  _47
REMARK   23  A    between atoms: _46  and  _49
REMARK   24  A    between atoms: _49  and  _50
REMARK   25  A    between atoms: _55  and  _56
REMARK   26  A    between atoms: _58  and  _60
REMARK   27  A    between atoms: _60  and  _61
REMARK   28  A    between atoms: _60  and  _63
REMARK   29  A    between atoms: _63  and  _64
REMARK   30  A    between atoms: _67  and  _69
REMARK   31  A    between atoms: _69  and  _70
REMARK   32  A    between atoms: _69  and  _72
REMARK   33  A    between atoms: _75  and  _77
REMARK   34  A    between atoms: _77  and  _78
REMARK   35  A    between atoms: _77  and  _80
REMARK   36  A    between atoms: _80  and  _81
REMARK   37  A    between atoms: _84  and  _86
REMARK   38  A    between atoms: _86  and  _87
REMARK   39  A    between atoms: _86  and  _89
REMARK   40  A    between atoms: _89  and  _90
REMARK   41  A    between atoms: _93  and  _95
REMARK   42  A    between atoms: _95  and  _96
REMARK   43  A    between atoms: _98  and  _100
REMARK   44  A    between atoms: _100  and  _101
REMARK   45  A    between atoms: _100  and  _103
REMARK   46  A    between atoms: _103  and  _104
REMARK   47  A    between atoms: _106  and  _108
REMARK   48  A    between atoms: _108  and  _109
REMARK   49  A    between atoms: _108  and  _111
REMARK   50  A    between atoms: _111  and  _112
REMARK   51  A    between atoms: _114  and  _116
REMARK   52  A    between atoms: _116  and  _117
REMARK   53  A    between atoms: _116  and  _119
REMARK   54  A    between atoms: _119  and  _120
REMARK   55  A    between atoms: _125  and  _127
REMARK   56  A    between atoms: _127  and  _128
REMARK   57  A    between atoms: _127  and  _130
REMARK   58  A    between atoms: _130  and  _131
REMARK   59  A    between atoms: _136  and  _137
REMARK   60  A    between atoms: _139  and  _141
REMARK   61  A    between atoms: _141  and  _142
REMARK   62  A    between atoms: _141  and  _144
REMARK   63  A    between atoms: _148  and  _149
REMARK   64  A    between atoms: _154  and  _156
REMARK   65  A    between atoms: _156  and  _157
REMARK   66  A    between atoms: _156  and  _159
REMARK   67  A    between atoms: _159  and  _160
REMARK   68  A    between atoms: _165  and  _166
REMARK   69  A    between atoms: _168  and  _170
REMARK   70  A    between atoms: _170  and  _171
REMARK   71  A    between atoms: _170  and  _173
REMARK   72  A    between atoms: _173  and  _174
REMARK   73  A    between atoms: _177  and  _179
REMARK   74  A    between atoms: _179  and  _180
REMARK   75  A    between atoms: _179  and  _182
REMARK   76  A    between atoms: _182  and  _183
REMARK   77  A    between atoms: _183  and  _184
REMARK   78  A    between atoms: _189  and  _191
REMARK   79  A    between atoms: _191  and  _192
REMARK   80  A    between atoms: _194  and  _196
REMARK   81  A    between atoms: _196  and  _197
REMARK   82  A    between atoms: _196  and  _199
REMARK   83  A    between atoms: _199  and  _200
REMARK   84  A    between atoms: _200  and  _201
REMARK   85  A    between atoms: _201  and  _202
REMARK   86  A    between atoms: _202  and  _203
REMARK   87  A    between atoms: _207  and  _209
REMARK   88  A    between atoms: _209  and  _210
REMARK   89  A    between atoms: _209  and  _212
REMARK   90  A    between atoms: _212  and  _213
REMARK   91  A    between atoms: _223  and  _225
REMARK   92  A    between atoms: _225  and  _226
REMARK   93  A    between atoms: _225  and  _228
REMARK   94  A    between atoms: _228  and  _229
REMARK   95  A    between atoms: _232  and  _234
REMARK   96  A    between atoms: _234  and  _235
REMARK   97  A    between atoms: _234  and  _237
REMARK   98  A    between atoms: _237  and  _238
REMARK   99  A    between atoms: _238  and  _239
REMARK  100  A    between atoms: _239  and  _240
REMARK  101  A    between atoms: _240  and  _241
REMARK  102  A    between atoms: _245  and  _247
REMARK  103  A    between atoms: _247  and  _248
REMARK  104  A    between atoms: _247  and  _250
REMARK  105  A    between atoms: _250  and  _251
REMARK  106  A    between atoms: _257  and  _259
REMARK  107  A    between atoms: _259  and  _260
REMARK  108  A    between atoms: _259  and  _262
REMARK  109  A    between atoms: _262  and  _263
REMARK  110  A    between atoms: _269  and  _271
REMARK  111  A    between atoms: _271  and  _272
REMARK  112  A    between atoms: _271  and  _274
REMARK  113  A    between atoms: _274  and  _275
REMARK  114  A    between atoms: _278  and  _280
REMARK  115  A    between atoms: _280  and  _281
REMARK  116  A    between atoms: _280  and  _283
REMARK  117  A    between atoms: _283  and  _284
REMARK  118  A    between atoms: _286  and  _288
REMARK  119  A    between atoms: _288  and  _289
REMARK  120  A    between atoms: _288  and  _291
REMARK  121  A    between atoms: _291  and  _292
REMARK  122  A    between atoms: _302  and  _304
REMARK  123  A    between atoms: _304  and  _305
REMARK  124  A    between atoms: _307  and  _309
REMARK  125  A    between atoms: _309  and  _310
REMARK  126  A    between atoms: _309  and  _312
REMARK  127  A    between atoms: _312  and  _313
REMARK  128  A    between atoms: _316  and  _318
REMARK  129  A    between atoms: _318  and  _319
REMARK  130  A    between atoms: _318  and  _321
REMARK  131  A    between atoms: _321  and  _322
REMARK  132  A    between atoms: _325  and  _327
REMARK  133  A    between atoms: _327  and  _328
REMARK  134  A    between atoms: _330  and  _332
REMARK  135  A    between atoms: _332  and  _333
REMARK  136  A    between atoms: _332  and  _335
REMARK  137  A    between atoms: _335  and  _336
REMARK  138  A    between atoms: _339  and  _341
REMARK  139  A    between atoms: _341  and  _342
REMARK  140  A    between atoms: _345  and  _347
REMARK  141  A    between atoms: _347  and  _348
REMARK  142  A    between atoms: _347  and  _350
REMARK  143  A    between atoms: _350  and  _351
REMARK  144  A    between atoms: _356  and  _357
REMARK  145  A    between atoms: _359  and  _361
REMARK  146  A    between atoms: _361  and  _362
REMARK  147  A    between atoms: _361  and  _364
REMARK  148  A    between atoms: _364  and  _365
REMARK  149  A    between atoms: _365  and  _366
REMARK  150  A    between atoms: _369  and  _371
REMARK  151  A    between atoms: _371  and  _372
REMARK  152  A    between atoms: _371  and  _374
REMARK  153  A    between atoms: _374  and  _375
REMARK  154  A    between atoms: _378  and  _380
REMARK  155  A    between atoms: _380  and  _381
REMARK  156  A    between atoms: _384  and  _386
REMARK  157  A    between atoms: _386  and  _387
REMARK  158  A    between atoms: _386  and  _389
REMARK  159  A    between atoms: _389  and  _390
REMARK  160  A    between atoms: _390  and  _391
REMARK  161  A    between atoms: _391  and  _392
REMARK  162  A    between atoms: _401  and  _403
REMARK  163  A    between atoms: _403  and  _404
REMARK  164  A    between atoms: _403  and  _406
REMARK  165  A    between atoms: _406  and  _407
REMARK  166  A    between atoms: _417  and  _419
REMARK  167  A    between atoms: _419  and  _420
REMARK  168  A    between atoms: _419  and  _422
REMARK  169  A    between atoms: _422  and  _423
REMARK  170  A    between atoms: _428  and  _429
REMARK  171  A    between atoms: _431  and  _433
REMARK  172  A    between atoms: _433  and  _434
REMARK  173  A    between atoms: _433  and  _436
REMARK  174  A    between atoms: _436  and  _437
REMARK  175  A    between atoms: _442  and  _443
REMARK  176  A    between atoms: _445  and  _447
REMARK  177  A    between atoms: _447  and  _448
REMARK  178  A    between atoms: _447  and  _450
REMARK  179  A    between atoms: _450  and  _451
REMARK  180  A    between atoms: _451  and  _452
REMARK  181  A    between atoms: _452  and  _453
REMARK  182  A    between atoms: _453  and  _454
REMARK  183  A    between atoms: _458  and  _460
REMARK  184  A    between atoms: _460  and  _461
REMARK  185  A    between atoms: _460  and  _463
REMARK  186  A    between atoms: _463  and  _464
REMARK  187  A    between atoms: _467  and  _469
REMARK  188  A    between atoms: _469  and  _470
REMARK  189  A    between atoms: _469  and  _472
REMARK  190  A    between atoms: _475  and  _477
REMARK  191  A    between atoms: _477  and  _478
REMARK  192  A    between atoms: _477  and  _480
REMARK  193  A    between atoms: _480  and  _481
REMARK  194  A    between atoms: _484  and  _486
REMARK  195  A    between atoms: _486  and  _487
REMARK  196  A    between atoms: _486  and  _489
REMARK  197  A    between atoms: _489  and  _490
REMARK  198  A    between atoms: _492  and  _494
REMARK  199  A    between atoms: _494  and  _495
REMARK  200  A    between atoms: _497  and  _499
REMARK  201  A    between atoms: _499  and  _500
REMARK  202  A    between atoms: _499  and  _502
REMARK  203  A    between atoms: _502  and  _503
REMARK  204  A    between atoms: _506  and  _508
REMARK  205  A    between atoms: _508  and  _509
REMARK  206  A    between atoms: _508  and  _511
REMARK  207  A    between atoms: _511  and  _512
REMARK  208  A    between atoms: _515  and  _517
REMARK  209  A    between atoms: _517  and  _518
REMARK  210  A    between atoms: _517  and  _520
REMARK  211  A    between atoms: _520  and  _521
REMARK  212  A    between atoms: _526  and  _528
REMARK  213  A    between atoms: _528  and  _529
REMARK  214  A    between atoms: _528  and  _531
REMARK  215  A    between atoms: _531  and  _532
REMARK  216  A    between atoms: _532  and  _533
REMARK  217  A    between atoms: _533  and  _534
REMARK  218  A    between atoms: _543  and  _545
REMARK  219  A    between atoms: _545  and  _546
REMARK  220  A    between atoms: _545  and  _548
REMARK  221  A    between atoms: _548  and  _549
REMARK  222  A    between atoms: _549  and  _550
REMARK  223  A    between atoms: _550  and  _551
REMARK  224  A    between atoms: _560  and  _562
REMARK  225  A    between atoms: _562  and  _563
REMARK  226  A    between atoms: _562  and  _565
REMARK  227  A    between atoms: _565  and  _566
REMARK  228  A    between atoms: _568  and  _570
REMARK  229  A    between atoms: _570  and  _571
REMARK  230  A    between atoms: _570  and  _573
REMARK  231  A    between atoms: _573  and  _574
REMARK  232  A    between atoms: _574  and  _575
REMARK  233  A    between atoms: _580  and  _582
REMARK  234  A    between atoms: _582  and  _583
REMARK  235  A    between atoms: _582  and  _585
REMARK  236  A    between atoms: _585  and  _586
REMARK  237  A    between atoms: _588  and  _590
REMARK  238  A    between atoms: _590  and  _591
REMARK  239  A    between atoms: _590  and  _593
REMARK  240  A    between atoms: _593  and  _594
REMARK  241  A    between atoms: _596  and  _598
REMARK  242  A    between atoms: _598  and  _599
REMARK  243  A    between atoms: _598  and  _601
REMARK  244  A    between atoms: _601  and  _602
REMARK  245  A    between atoms: _605  and  _607
REMARK  246  A    between atoms: _607  and  _608
REMARK  247  A    between atoms: _607  and  _610
REMARK  248  A    between atoms: _610  and  _611
REMARK  249  A    between atoms: _614  and  _616
REMARK  250  A    between atoms: _616  and  _617
REMARK  251  A    between atoms: _616  and  _619
REMARK  252  A    between atoms: _622  and  _624
REMARK  253  A    between atoms: _624  and  _625
REMARK  254  A    between atoms: _627  and  _629
REMARK  255  A    between atoms: _629  and  _630
REMARK  256  A    between atoms: _633  and  _635
REMARK  257  A    between atoms: _635  and  _636
REMARK  258  A    between atoms: _635  and  _638
REMARK                            x       y       z     vdW  Elec       q    Type
REMARK                         _______ _______ _______ _____ _____    ______ ____
ROOT
ATOM      1  O   HOH     1      32.978  16.678  14.858  0.00  0.00    +0.000 OA
ENDROOT
TORSDOF 0
REMARK  Name = ../refined-set-2016/3lpk/3lpk_pocket.pdb
REMARK  258 active torsions:
REMARK  status: ('A' for Active; 'I' for Inactive)
REMARK    1  A    between atoms: _1  and  _3
REMARK    2  A    between atoms: _3  and  _4
REMARK    3  A    between atoms: _3  and  _6
REMARK    4  A    between atoms: _6  and  _7
REMARK    5  A    between atoms: _7  and  _8
REMARK    6  A    between atoms: _8  and  _9
REMARK    7  A    between atoms: _9  and  _10
REMARK    8  A    between atoms: _14  and  _16
REMARK    9  A    between atoms: _16  and  _17
REMARK   10  A    between atoms: _16  and  _19
REMARK   11  A    between atoms: _19  and  _20
REMARK   12  A    between atoms: _22  and  _24
REMARK   13  A    between atoms: _24  and  _25
REMARK   14  A    between atoms: _27  and  _29
REMARK   15  A    between atoms: _29  and  _30
REMARK   16  A    between atoms: _29  and  _32
REMARK   17  A    between atoms: _32  and  _33
REMARK   18  A    between atoms: _33  and  _34
REMARK   19  A    between atoms: _39  and  _41
REMARK   20  A    between atoms: _41  and  _42
REMARK   21  A    between atoms: _44  and  _46
REMARK   22  A    between atoms: _46  and  _47
REMARK   23  A    between atoms: _46  and  _49
REMARK   24  A    between atoms: _49  and  _50
REMARK   25  A    between atoms: _55  and  _56
REMARK   26  A    between atoms: _58  and  _60
REMARK   27  A    between atoms: _60  and  _61
REMARK   28  A    between atoms: _60  and  _63
REMARK   29  A    between atoms: _63  and  _64
REMARK   30  A    between atoms: _67  and  _69
REMARK   31  A    between atoms: _69  and  _70
REMARK   32  A    between atoms: _69  and  _72
REMARK   33  A    between atoms: _75  and  _77
REMARK   34  A    between atoms: _77  and  _78
REMARK   35  A    between atoms: _77  and  _80
REMARK   36  A    between atoms: _80  and  _81
REMARK   37  A    between atoms: _84  and  _86
REMARK   38  A    between atoms: _86  and  _87
REMARK   39  A    between atoms: _86  and  _89
REMARK   40  A    between atoms: _89  and  _90
REMARK   41  A    between atoms: _93  and  _95
REMARK   42  A    between atoms: _95  and  _96
REMARK   43  A    between atoms: _98  and  _100
REMARK   44  A    between atoms: _100  and  _101
REMARK   45  A    between atoms: _100  and  _103
REMARK   46  A    between atoms: _103  and  _104
REMARK   47  A    between atoms: _106  and  _108
REMARK   48  A    between atoms: _108  and  _109
REMARK   49  A    between atoms: _108  and  _111
REMARK   50  A    between atoms: _111  and  _112
REMARK   51  A    between atoms: _114  and  _116
REMARK   52  A    between atoms: _116  and  _117
REMARK   53  A    between atoms: _116  and  _119
REMARK   54  A    between atoms: _119  and  _120
REMARK   55  A    between atoms: _125  and  _127
REMARK   56  A    between atoms: _127  and  _128
REMARK   57  A    between atoms: _127  and  _130
REMARK   58  A    between atoms: _130  and  _131
REMARK   59  A    between atoms: _136  and  _137
REMARK   60  A    between atoms: _139  and  _141
REMARK   61  A    between atoms: _141  and  _142
REMARK   62  A    between atoms: _141  and  _144
REMARK   63  A    between atoms: _148  and  _149
REMARK   64  A    between atoms: _154  and  _156
REMARK   65  A    between atoms: _156  and  _157
REMARK   66  A    between atoms: _156  and  _159
REMARK   67  A    between atoms: _159  and  _160
REMARK   68  A    between atoms: _165  and  _166
REMARK   69  A    between atoms: _168  and  _170
REMARK   70  A    between atoms: _170  and  _171
REMARK   71  A    between atoms: _170  and  _173
REMARK   72  A    between atoms: _173  and  _174
REMARK   73  A    between atoms: _177  and  _179
REMARK   74  A    between atoms: _179  and  _180
REMARK   75  A    between atoms: _179  and  _182
REMARK   76  A    between atoms: _182  and  _183
REMARK   77  A    between atoms: _183  and  _184
REMARK   78  A    between atoms: _189  and  _191
REMARK   79  A    between atoms: _191  and  _192
REMARK   80  A    between atoms: _194  and  _196
REMARK   81  A    between atoms: _196  and  _197
REMARK   82  A    between atoms: _196  and  _199
REMARK   83  A    between atoms: _199  and  _200
REMARK   84  A    between atoms: _200  and  _201
REMARK   85  A    between atoms: _201  and  _202
REMARK   86  A    between atoms: _202  and  _203
REMARK   87  A    between atoms: _207  and  _209
REMARK   88  A    between atoms: _209  and  _210
REMARK   89  A    between atoms: _209  and  _212
REMARK   90  A    between atoms: _212  and  _213
REMARK   91  A    between atoms: _223  and  _225
REMARK   92  A    between atoms: _225  and  _226
REMARK   93  A    between atoms: _225  and  _228
REMARK   94  A    between atoms: _228  and  _229
REMARK   95  A    between atoms: _232  and  _234
REMARK   96  A    between atoms: _234  and  _235
REMARK   97  A    between atoms: _234  and  _237
REMARK   98  A    between atoms: _237  and  _238
REMARK   99  A    between atoms: _238  and  _239
REMARK  100  A    between atoms: _239  and  _240
REMARK  101  A    between atoms: _240  and  _241
REMARK  102  A    between atoms: _245  and  _247
REMARK  103  A    between atoms: _247  and  _248
REMARK  104  A    between atoms: _247  and  _250
REMARK  105  A    between atoms: _250  and  _251
REMARK  106  A    between atoms: _257  and  _259
REMARK  107  A    between atoms: _259  and  _260
REMARK  108  A    between atoms: _259  and  _262
REMARK  109  A    between atoms: _262  and  _263
REMARK  110  A    between atoms: _269  and  _271
REMARK  111  A    between atoms: _271  and  _272
REMARK  112  A    between atoms: _271  and  _274
REMARK  113  A    between atoms: _274  and  _275
REMARK  114  A    between atoms: _278  and  _280
REMARK  115  A    between atoms: _280  and  _281
REMARK  116  A    between atoms: _280  and  _283
REMARK  117  A    between atoms: _283  and  _284
REMARK  118  A    between atoms: _286  and  _288
REMARK  119  A    between atoms: _288  and  _289
REMARK  120  A    between atoms: _288  and  _291
REMARK  121  A    between atoms: _291  and  _292
REMARK  122  A    between atoms: _302  and  _304
REMARK  123  A    between atoms: _304  and  _305
REMARK  124  A    between atoms: _307  and  _309
REMARK  125  A    between atoms: _309  and  _310
REMARK  126  A    between atoms: _309  and  _312
REMARK  127  A    between atoms: _312  and  _313
REMARK  128  A    between atoms: _316  and  _318
REMARK  129  A    between atoms: _318  and  _319
REMARK  130  A    between atoms: _318  and  _321
REMARK  131  A    between atoms: _321  and  _322
REMARK  132  A    between atoms: _325  and  _327
REMARK  133  A    between atoms: _327  and  _328
REMARK  134  A    between atoms: _330  and  _332
REMARK  135  A    between atoms: _332  and  _333
REMARK  136  A    between atoms: _332  and  _335
REMARK  137  A    between atoms: _335  and  _336
REMARK  138  A    between atoms: _339  and  _341
REMARK  139  A    between atoms: _341  and  _342
REMARK  140  A    between atoms: _345  and  _347
REMARK  141  A    between atoms: _347  and  _348
REMARK  142  A    between atoms: _347  and  _350
REMARK  143  A    between atoms: _350  and  _351
REMARK  144  A    between atoms: _356  and  _357
REMARK  145  A    between atoms: _359  and  _361
REMARK  146  A    between atoms: _361  and  _362
REMARK  147  A    between atoms: _361  and  _364
REMARK  148  A    between atoms: _364  and  _365
REMARK  149  A    between atoms: _365  and  _366
REMARK  150  A    between atoms: _369  and  _371
REMARK  151  A    between atoms: _371  and  _372
REMARK  152  A    between atoms: _371  and  _374
REMARK  153  A    between atoms: _374  and  _375
REMARK  154  A    between atoms: _378  and  _380
REMARK  155  A    between atoms: _380  and  _381
REMARK  156  A    between atoms: _384  and  _386
REMARK  157  A    between atoms: _386  and  _387
REMARK  158  A    between atoms: _386  and  _389
REMARK  159  A    between atoms: _389  and  _390
REMARK  160  A    between atoms: _390  and  _391
REMARK  161  A    between atoms: _391  and  _392
REMARK  162  A    between atoms: _401  and  _403
REMARK  163  A    between atoms: _403  and  _404
REMARK  164  A    between atoms: _403  and  _406
REMARK  165  A    between atoms: _406  and  _407
REMARK  166  A    between atoms: _417  and  _419
REMARK  167  A    between atoms: _419  and  _420
REMARK  168  A    between atoms: _419  and  _422
REMARK  169  A    between atoms: _422  and  _423
REMARK  170  A    between atoms: _428  and  _429
REMARK  171  A    between atoms: _431  and  _433
REMARK  172  A    between atoms: _433  and  _434
REMARK  173  A    between atoms: _433  and  _436
REMARK  174  A    between atoms: _436  and  _437
REMARK  175  A    between atoms: _442  and  _443
REMARK  176  A    between atoms: _445  and  _447
REMARK  177  A    between atoms: _447  and  _448
REMARK  178  A    between atoms: _447  and  _450
REMARK  179  A    between atoms: _450  and  _451
REMARK  180  A    between atoms: _451  and  _452
REMARK  181  A    between atoms: _452  and  _453
REMARK  182  A    between atoms: _453  and  _454
REMARK  183  A    between atoms: _458  and  _460
REMARK  184  A    between atoms: _460  and  _461
REMARK  185  A    between atoms: _460  and  _463
REMARK  186  A    between atoms: _463  and  _464
REMARK  187  A    between atoms: _467  and  _469
REMARK  188  A    between atoms: _469  and  _470
REMARK  189  A    between atoms: _469  and  _472
REMARK  190  A    between atoms: _475  and  _477
REMARK  191  A    between atoms: _477  and  _478
REMARK  192  A    between atoms: _477  and  _480
REMARK  193  A    between atoms: _480  and  _481
REMARK  194  A    between atoms: _484  and  _486
REMARK  195  A    between atoms: _486  and  _487
REMARK  196  A    between atoms: _486  and  _489
REMARK  197  A    between atoms: _489  and  _490
REMARK  198  A    between atoms: _492  and  _494
REMARK  199  A    between atoms: _494  and  _495
REMARK  200  A    between atoms: _497  and  _499
REMARK  201  A    between atoms: _499  and  _500
REMARK  202  A    between atoms: _499  and  _502
REMARK  203  A    between atoms: _502  and  _503
REMARK  204  A    between atoms: _506  and  _508
REMARK  205  A    between atoms: _508  and  _509
REMARK  206  A    between atoms: _508  and  _511
REMARK  207  A    between atoms: _511  and  _512
REMARK  208  A    between atoms: _515  and  _517
REMARK  209  A    between atoms: _517  and  _518
REMARK  210  A    between atoms: _517  and  _520
REMARK  211  A    between atoms: _520  and  _521
REMARK  212  A    between atoms: _526  and  _528
REMARK  213  A    between atoms: _528  and  _529
REMARK  214  A    between atoms: _528  and  _531
REMARK  215  A    between atoms: _531  and  _532
REMARK  216  A    between atoms: _532  and  _533
REMARK  217  A    between atoms: _533  and  _534
REMARK  218  A    between atoms: _543  and  _545
REMARK  219  A    between atoms: _545  and  _546
REMARK  220  A    between atoms: _545  and  _548
REMARK  221  A    between atoms: _548  and  _549
REMARK  222  A    between atoms: _549  and  _550
REMARK  223  A    between atoms: _550  and  _551
REMARK  224  A    between atoms: _560  and  _562
REMARK  225  A    between atoms: _562  and  _563
REMARK  226  A    between atoms: _562  and  _565
REMARK  227  A    between atoms: _565  and  _566
REMARK  228  A    between atoms: _568  and  _570
REMARK  229  A    between atoms: _570  and  _571
REMARK  230  A    between atoms: _570  and  _573
REMARK  231  A    between atoms: _573  and  _574
REMARK  232  A    between atoms: _574  and  _575
REMARK  233  A    between atoms: _580  and  _582
REMARK  234  A    between atoms: _582  and  _583
REMARK  235  A    between atoms: _582  and  _585
REMARK  236  A    between atoms: _585  and  _586
REMARK  237  A    between atoms: _588  and  _590
REMARK  238  A    between atoms: _590  and  _591
REMARK  239  A    between atoms: _590  and  _593
REMARK  240  A    between atoms: _593  and  _594
REMARK  241  A    between atoms: _596  and  _598
REMARK  242  A    between atoms: _598  and  _599
REMARK  243  A    between atoms: _598  and  _601
REMARK  244  A    between atoms: _601  and  _602
REMARK  245  A    between atoms: _605  and  _607
REMARK  246  A    between atoms: _607  and  _608
REMARK  247  A    between atoms: _607  and  _610
REMARK  248  A    between atoms: _610  and  _611
REMARK  249  A    between atoms: _614  and  _616
REMARK  250  A    between atoms: _616  and  _617
REMARK  251  A    between atoms: _616  and  _619
REMARK  252  A    between atoms: _622  and  _624
REMARK  253  A    between atoms: _624  and  _625
REMARK  254  A    between atoms: _627  and  _629
REMARK  255  A    between atoms: _629  and  _630
REMARK  256  A    between atoms: _633  and  _635
REMARK  257  A    between atoms: _635  and  _636
REMARK  258  A    between atoms: _635  and  _638
REMARK                            x       y       z     vdW  Elec       q    Type
REMARK                         _______ _______ _______ _____ _____    ______ ____
ROOT
ATOM      1  O   HOH     1      37.587  12.835  19.797  0.00  0.00    +0.000 OA
ENDROOT
TORSDOF 0
REMARK  Name = ../refined-set-2016/3lpk/3lpk_pocket.pdb
REMARK  258 active torsions:
REMARK  status: ('A' for Active; 'I' for Inactive)
REMARK    1  A    between atoms: _1  and  _3
REMARK    2  A    between atoms: _3  and  _4
REMARK    3  A    between atoms: _3  and  _6
REMARK    4  A    between atoms: _6  and  _7
REMARK    5  A    between atoms: _7  and  _8
REMARK    6  A    between atoms: _8  and  _9
REMARK    7  A    between atoms: _9  and  _10
REMARK    8  A    between atoms: _14  and  _16
REMARK    9  A    between atoms: _16  and  _17
REMARK   10  A    between atoms: _16  and  _19
REMARK   11  A    between atoms: _19  and  _20
REMARK   12  A    between atoms: _22  and  _24
REMARK   13  A    between atoms: _24  and  _25
REMARK   14  A    between atoms: _27  and  _29
REMARK   15  A    between atoms: _29  and  _30
REMARK   16  A    between atoms: _29  and  _32
REMARK   17  A    between atoms: _32  and  _33
REMARK   18  A    between atoms: _33  and  _34
REMARK   19  A    between atoms: _39  and  _41
REMARK   20  A    between atoms: _41  and  _42
REMARK   21  A    between atoms: _44  and  _46
REMARK   22  A    between atoms: _46  and  _47
REMARK   23  A    between atoms: _46  and  _49
REMARK   24  A    between atoms: _49  and  _50
REMARK   25  A    between atoms: _55  and  _56
REMARK   26  A    between atoms: _58  and  _60
REMARK   27  A    between atoms: _60  and  _61
REMARK   28  A    between atoms: _60  and  _63
REMARK   29  A    between atoms: _63  and  _64
REMARK   30  A    between atoms: _67  and  _69
REMARK   31  A    between atoms: _69  and  _70
REMARK   32  A    between atoms: _69  and  _72
REMARK   33  A    between atoms: _75  and  _77
REMARK   34  A    between atoms: _77  and  _78
REMARK   35  A    between atoms: _77  and  _80
REMARK   36  A    between atoms: _80  and  _81
REMARK   37  A    between atoms: _84  and  _86
REMARK   38  A    between atoms: _86  and  _87
REMARK   39  A    between atoms: _86  and  _89
REMARK   40  A    between atoms: _89  and  _90
REMARK   41  A    between atoms: _93  and  _95
REMARK   42  A    between atoms: _95  and  _96
REMARK   43  A    between atoms: _98  and  _100
REMARK   44  A    between atoms: _100  and  _101
REMARK   45  A    between atoms: _100  and  _103
REMARK   46  A    between atoms: _103  and  _104
REMARK   47  A    between atoms: _106  and  _108
REMARK   48  A    between atoms: _108  and  _109
REMARK   49  A    between atoms: _108  and  _111
REMARK   50  A    between atoms: _111  and  _112
REMARK   51  A    between atoms: _114  and  _116
REMARK   52  A    between atoms: _116  and  _117
REMARK   53  A    between atoms: _116  and  _119
REMARK   54  A    between atoms: _119  and  _120
REMARK   55  A    between atoms: _125  and  _127
REMARK   56  A    between atoms: _127  and  _128
REMARK   57  A    between atoms: _127  and  _130
REMARK   58  A    between atoms: _130  and  _131
REMARK   59  A    between atoms: _136  and  _137
REMARK   60  A    between atoms: _139  and  _141
REMARK   61  A    between atoms: _141  and  _142
REMARK   62  A    between atoms: _141  and  _144
REMARK   63  A    between atoms: _148  and  _149
REMARK   64  A    between atoms: _154  and  _156
REMARK   65  A    between atoms: _156  and  _157
REMARK   66  A    between atoms: _156  and  _159
REMARK   67  A    between atoms: _159  and  _160
REMARK   68  A    between atoms: _165  and  _166
REMARK   69  A    between atoms: _168  and  _170
REMARK   70  A    between atoms: _170  and  _171
REMARK   71  A    between atoms: _170  and  _173
REMARK   72  A    between atoms: _173  and  _174
REMARK   73  A    between atoms: _177  and  _179
REMARK   74  A    between atoms: _179  and  _180
REMARK   75  A    between atoms: _179  and  _182
REMARK   76  A    between atoms: _182  and  _183
REMARK   77  A    between atoms: _183  and  _184
REMARK   78  A    between atoms: _189  and  _191
REMARK   79  A    between atoms: _191  and  _192
REMARK   80  A    between atoms: _194  and  _196
REMARK   81  A    between atoms: _196  and  _197
REMARK   82  A    between atoms: _196  and  _199
REMARK   83  A    between atoms: _199  and  _200
REMARK   84  A    between atoms: _200  and  _201
REMARK   85  A    between atoms: _201  and  _202
REMARK   86  A    between atoms: _202  and  _203
REMARK   87  A    between atoms: _207  and  _209
REMARK   88  A    between atoms: _209  and  _210
REMARK   89  A    between atoms: _209  and  _212
REMARK   90  A    between atoms: _212  and  _213
REMARK   91  A    between atoms: _223  and  _225
REMARK   92  A    between atoms: _225  and  _226
REMARK   93  A    between atoms: _225  and  _228
REMARK   94  A    between atoms: _228  and  _229
REMARK   95  A    between atoms: _232  and  _234
REMARK   96  A    between atoms: _234  and  _235
REMARK   97  A    between atoms: _234  and  _237
REMARK   98  A    between atoms: _237  and  _238
REMARK   99  A    between atoms: _238  and  _239
REMARK  100  A    between atoms: _239  and  _240
REMARK  101  A    between atoms: _240  and  _241
REMARK  102  A    between atoms: _245  and  _247
REMARK  103  A    between atoms: _247  and  _248
REMARK  104  A    between atoms: _247  and  _250
REMARK  105  A    between atoms: _250  and  _251
REMARK  106  A    between atoms: _257  and  _259
REMARK  107  A    between atoms: _259  and  _260
REMARK  108  A    between atoms: _259  and  _262
REMARK  109  A    between atoms: _262  and  _263
REMARK  110  A    between atoms: _269  and  _271
REMARK  111  A    between atoms: _271  and  _272
REMARK  112  A    between atoms: _271  and  _274
REMARK  113  A    between atoms: _274  and  _275
REMARK  114  A    between atoms: _278  and  _280
REMARK  115  A    between atoms: _280  and  _281
REMARK  116  A    between atoms: _280  and  _283
REMARK  117  A    between atoms: _283  and  _284
REMARK  118  A    between atoms: _286  and  _288
REMARK  119  A    between atoms: _288  and  _289
REMARK  120  A    between atoms: _288  and  _291
REMARK  121  A    between atoms: _291  and  _292
REMARK  122  A    between atoms: _302  and  _304
REMARK  123  A    between atoms: _304  and  _305
REMARK  124  A    between atoms: _307  and  _309
REMARK  125  A    between atoms: _309  and  _310
REMARK  126  A    between atoms: _309  and  _312
REMARK  127  A    between atoms: _312  and  _313
REMARK  128  A    between atoms: _316  and  _318
REMARK  129  A    between atoms: _318  and  _319
REMARK  130  A    between atoms: _318  and  _321
REMARK  131  A    between atoms: _321  and  _322
REMARK  132  A    between atoms: _325  and  _327
REMARK  133  A    between atoms: _327  and  _328
REMARK  134  A    between atoms: _330  and  _332
REMARK  135  A    between atoms: _332  and  _333
REMARK  136  A    between atoms: _332  and  _335
REMARK  137  A    between atoms: _335  and  _336
REMARK  138  A    between atoms: _339  and  _341
REMARK  139  A    between atoms: _341  and  _342
REMARK  140  A    between atoms: _345  and  _347
REMARK  141  A    between atoms: _347  and  _348
REMARK  142  A    between atoms: _347  and  _350
REMARK  143  A    between atoms: _350  and  _351
REMARK  144  A    between atoms: _356  and  _357
REMARK  145  A    between atoms: _359  and  _361
REMARK  146  A    between atoms: _361  and  _362
REMARK  147  A    between atoms: _361  and  _364
REMARK  148  A    between atoms: _364  and  _365
REMARK  149  A    between atoms: _365  and  _366
REMARK  150  A    between atoms: _369  and  _371
REMARK  151  A    between atoms: _371  and  _372
REMARK  152  A    between atoms: _371  and  _374
REMARK  153  A    between atoms: _374  and  _375
REMARK  154  A    between atoms: _378  and  _380
REMARK  155  A    between atoms: _380  and  _381
REMARK  156  A    between atoms: _384  and  _386
REMARK  157  A    between atoms: _386  and  _387
REMARK  158  A    between atoms: _386  and  _389
REMARK  159  A    between atoms: _389  and  _390
REMARK  160  A    between atoms: _390  and  _391
REMARK  161  A    between atoms: _391  and  _392
REMARK  162  A    between atoms: _401  and  _403
REMARK  163  A    between atoms: _403  and  _404
REMARK  164  A    between atoms: _403  and  _406
REMARK  165  A    between atoms: _406  and  _407
REMARK  166  A    between atoms: _417  and  _419
REMARK  167  A    between atoms: _419  and  _420
REMARK  168  A    between atoms: _419  and  _422
REMARK  169  A    between atoms: _422  and  _423
REMARK  170  A    between atoms: _428  and  _429
REMARK  171  A    between atoms: _431  and  _433
REMARK  172  A    between atoms: _433  and  _434
REMARK  173  A    between atoms: _433  and  _436
REMARK  174  A    between atoms: _436  and  _437
REMARK  175  A    between atoms: _442  and  _443
REMARK  176  A    between atoms: _445  and  _447
REMARK  177  A    between atoms: _447  and  _448
REMARK  178  A    between atoms: _447  and  _450
REMARK  179  A    between atoms: _450  and  _451
REMARK  180  A    between atoms: _451  and  _452
REMARK  181  A    between atoms: _452  and  _453
REMARK  182  A    between atoms: _453  and  _454
REMARK  183  A    between atoms: _458  and  _460
REMARK  184  A    between atoms: _460  and  _461
REMARK  185  A    between atoms: _460  and  _463
REMARK  186  A    between atoms: _463  and  _464
REMARK  187  A    between atoms: _467  and  _469
REMARK  188  A    between atoms: _469  and  _470
REMARK  189  A    between atoms: _469  and  _472
REMARK  190  A    between atoms: _475  and  _477
REMARK  191  A    between atoms: _477  and  _478
REMARK  192  A    between atoms: _477  and  _480
REMARK  193  A    between atoms: _480  and  _481
REMARK  194  A    between atoms: _484  and  _486
REMARK  195  A    between atoms: _486  and  _487
REMARK  196  A    between atoms: _486  and  _489
REMARK  197  A    between atoms: _489  and  _490
REMARK  198  A    between atoms: _492  and  _494
REMARK  199  A    between atoms: _494  and  _495
REMARK  200  A    between atoms: _497  and  _499
REMARK  201  A    between atoms: _499  and  _500
REMARK  202  A    between atoms: _499  and  _502
REMARK  203  A    between atoms: _502  and  _503
REMARK  204  A    between atoms: _506  and  _508
REMARK  205  A    between atoms: _508  and  _509
REMARK  206  A    between atoms: _508  and  _511
REMARK  207  A    between atoms: _511  and  _512
REMARK  208  A    between atoms: _515  and  _517
REMARK  209  A    between atoms: _517  and  _518
REMARK  210  A    between atoms: _517  and  _520
REMARK  211  A    between atoms: _520  and  _521
REMARK  212  A    between atoms: _526  and  _528
REMARK  213  A    between atoms: _528  and  _529
REMARK  214  A    between atoms: _528  and  _531
REMARK  215  A    between atoms: _531  and  _532
REMARK  216  A    between atoms: _532  and  _533
REMARK  217  A    between atoms: _533  and  _534
REMARK  218  A    between atoms: _543  and  _545
REMARK  219  A    between atoms: _545  and  _546
REMARK  220  A    between atoms: _545  and  _548
REMARK  221  A    between atoms: _548  and  _549
REMARK  222  A    between atoms: _549  and  _550
REMARK  223  A    between atoms: _550  and  _551
REMARK  224  A    between atoms: _560  and  _562
REMARK  225  A    between atoms: _562  and  _563
REMARK  226  A    between atoms: _562  and  _565
REMARK  227  A    between atoms: _565  and  _566
REMARK  228  A    between atoms: _568  and  _570
REMARK  229  A    between atoms: _570  and  _571
REMARK  230  A    between atoms: _570  and  _573
REMARK  231  A    between atoms: _573  and  _574
REMARK  232  A    between atoms: _574  and  _575
REMARK  233  A    between atoms: _580  and  _582
REMARK  234  A    between atoms: _582  and  _583
REMARK  235  A    between atoms: _582  and  _585
REMARK  236  A    between atoms: _585  and  _586
REMARK  237  A    between atoms: _588  and  _590
REMARK  238  A    between atoms: _590  and  _591
REMARK  239  A    between atoms: _590  and  _593
REMARK  240  A    between atoms: _593  and  _594
REMARK  241  A    between atoms: _596  and  _598
REMARK  242  A    between atoms: _598  and  _599
REMARK  243  A    between atoms: _598  and  _601
REMARK  244  A    between atoms: _601  and  _602
REMARK  245  A    between atoms: _605  and  _607
REMARK  246  A    between atoms: _607  and  _608
REMARK  247  A    between atoms: _607  and  _610
REMARK  248  A    between atoms: _610  and  _611
REMARK  249  A    between atoms: _614  and  _616
REMARK  250  A    between atoms: _616  and  _617
REMARK  251  A    between atoms: _616  and  _619
REMARK  252  A    between atoms: _622  and  _624
REMARK  253  A    between atoms: _624  and  _625
REMARK  254  A    between atoms: _627  and  _629
REMARK  255  A    between atoms: _629  and  _630
REMARK  256  A    between atoms: _633  and  _635
REMARK  257  A    between atoms: _635  and  _636
REMARK  258  A    between atoms: _635  and  _638
REMARK                            x       y       z     vdW  Elec       q    Type
REMARK                         _______ _______ _______ _____ _____    ______ ____
ROOT
ATOM      1  O   HOH     1      20.660   5.089  30.219  0.00  0.00    +0.000 OA
ENDROOT
TORSDOF 0
REMARK  Name = ../refined-set-2016/3lpk/3lpk_pocket.pdb
REMARK  258 active torsions:
REMARK  status: ('A' for Active; 'I' for Inactive)
REMARK    1  A    between atoms: _1  and  _3
REMARK    2  A    between atoms: _3  and  _4
REMARK    3  A    between atoms: _3  and  _6
REMARK    4  A    between atoms: _6  and  _7
REMARK    5  A    between atoms: _7  and  _8
REMARK    6  A    between atoms: _8  and  _9
REMARK    7  A    between atoms: _9  and  _10
REMARK    8  A    between atoms: _14  and  _16
REMARK    9  A    between atoms: _16  and  _17
REMARK   10  A    between atoms: _16  and  _19
REMARK   11  A    between atoms: _19  and  _20
REMARK   12  A    between atoms: _22  and  _24
REMARK   13  A    between atoms: _24  and  _25
REMARK   14  A    between atoms: _27  and  _29
REMARK   15  A    between atoms: _29  and  _30
REMARK   16  A    between atoms: _29  and  _32
REMARK   17  A    between atoms: _32  and  _33
REMARK   18  A    between atoms: _33  and  _34
REMARK   19  A    between atoms: _39  and  _41
REMARK   20  A    between atoms: _41  and  _42
REMARK   21  A    between atoms: _44  and  _46
REMARK   22  A    between atoms: _46  and  _47
REMARK   23  A    between atoms: _46  and  _49
REMARK   24  A    between atoms: _49  and  _50
REMARK   25  A    between atoms: _55  and  _56
REMARK   26  A    between atoms: _58  and  _60
REMARK   27  A    between atoms: _60  and  _61
REMARK   28  A    between atoms: _60  and  _63
REMARK   29  A    between atoms: _63  and  _64
REMARK   30  A    between atoms: _67  and  _69
REMARK   31  A    between atoms: _69  and  _70
REMARK   32  A    between atoms: _69  and  _72
REMARK   33  A    between atoms: _75  and  _77
REMARK   34  A    between atoms: _77  and  _78
REMARK   35  A    between atoms: _77  and  _80
REMARK   36  A    between atoms: _80  and  _81
REMARK   37  A    between atoms: _84  and  _86
REMARK   38  A    between atoms: _86  and  _87
REMARK   39  A    between atoms: _86  and  _89
REMARK   40  A    between atoms: _89  and  _90
REMARK   41  A    between atoms: _93  and  _95
REMARK   42  A    between atoms: _95  and  _96
REMARK   43  A    between atoms: _98  and  _100
REMARK   44  A    between atoms: _100  and  _101
REMARK   45  A    between atoms: _100  and  _103
REMARK   46  A    between atoms: _103  and  _104
REMARK   47  A    between atoms: _106  and  _108
REMARK   48  A    between atoms: _108  and  _109
REMARK   49  A    between atoms: _108  and  _111
REMARK   50  A    between atoms: _111  and  _112
REMARK   51  A    between atoms: _114  and  _116
REMARK   52  A    between atoms: _116  and  _117
REMARK   53  A    between atoms: _116  and  _119
REMARK   54  A    between atoms: _119  and  _120
REMARK   55  A    between atoms: _125  and  _127
REMARK   56  A    between atoms: _127  and  _128
REMARK   57  A    between atoms: _127  and  _130
REMARK   58  A    between atoms: _130  and  _131
REMARK   59  A    between atoms: _136  and  _137
REMARK   60  A    between atoms: _139  and  _141
REMARK   61  A    between atoms: _141  and  _142
REMARK   62  A    between atoms: _141  and  _144
REMARK   63  A    between atoms: _148  and  _149
REMARK   64  A    between atoms: _154  and  _156
REMARK   65  A    between atoms: _156  and  _157
REMARK   66  A    between atoms: _156  and  _159
REMARK   67  A    between atoms: _159  and  _160
REMARK   68  A    between atoms: _165  and  _166
REMARK   69  A    between atoms: _168  and  _170
REMARK   70  A    between atoms: _170  and  _171
REMARK   71  A    between atoms: _170  and  _173
REMARK   72  A    between atoms: _173  and  _174
REMARK   73  A    between atoms: _177  and  _179
REMARK   74  A    between atoms: _179  and  _180
REMARK   75  A    between atoms: _179  and  _182
REMARK   76  A    between atoms: _182  and  _183
REMARK   77  A    between atoms: _183  and  _184
REMARK   78  A    between atoms: _189  and  _191
REMARK   79  A    between atoms: _191  and  _192
REMARK   80  A    between atoms: _194  and  _196
REMARK   81  A    between atoms: _196  and  _197
REMARK   82  A    between atoms: _196  and  _199
REMARK   83  A    between atoms: _199  and  _200
REMARK   84  A    between atoms: _200  and  _201
REMARK   85  A    between atoms: _201  and  _202
REMARK   86  A    between atoms: _202  and  _203
REMARK   87  A    between atoms: _207  and  _209
REMARK   88  A    between atoms: _209  and  _210
REMARK   89  A    between atoms: _209  and  _212
REMARK   90  A    between atoms: _212  and  _213
REMARK   91  A    between atoms: _223  and  _225
REMARK   92  A    between atoms: _225  and  _226
REMARK   93  A    between atoms: _225  and  _228
REMARK   94  A    between atoms: _228  and  _229
REMARK   95  A    between atoms: _232  and  _234
REMARK   96  A    between atoms: _234  and  _235
REMARK   97  A    between atoms: _234  and  _237
REMARK   98  A    between atoms: _237  and  _238
REMARK   99  A    between atoms: _238  and  _239
REMARK  100  A    between atoms: _239  and  _240
REMARK  101  A    between atoms: _240  and  _241
REMARK  102  A    between atoms: _245  and  _247
REMARK  103  A    between atoms: _247  and  _248
REMARK  104  A    between atoms: _247  and  _250
REMARK  105  A    between atoms: _250  and  _251
REMARK  106  A    between atoms: _257  and  _259
REMARK  107  A    between atoms: _259  and  _260
REMARK  108  A    between atoms: _259  and  _262
REMARK  109  A    between atoms: _262  and  _263
REMARK  110  A    between atoms: _269  and  _271
REMARK  111  A    between atoms: _271  and  _272
REMARK  112  A    between atoms: _271  and  _274
REMARK  113  A    between atoms: _274  and  _275
REMARK  114  A    between atoms: _278  and  _280
REMARK  115  A    between atoms: _280  and  _281
REMARK  116  A    between atoms: _280  and  _283
REMARK  117  A    between atoms: _283  and  _284
REMARK  118  A    between atoms: _286  and  _288
REMARK  119  A    between atoms: _288  and  _289
REMARK  120  A    between atoms: _288  and  _291
REMARK  121  A    between atoms: _291  and  _292
REMARK  122  A    between atoms: _302  and  _304
REMARK  123  A    between atoms: _304  and  _305
REMARK  124  A    between atoms: _307  and  _309
REMARK  125  A    between atoms: _309  and  _310
REMARK  126  A    between atoms: _309  and  _312
REMARK  127  A    between atoms: _312  and  _313
REMARK  128  A    between atoms: _316  and  _318
REMARK  129  A    between atoms: _318  and  _319
REMARK  130  A    between atoms: _318  and  _321
REMARK  131  A    between atoms: _321  and  _322
REMARK  132  A    between atoms: _325  and  _327
REMARK  133  A    between atoms: _327  and  _328
REMARK  134  A    between atoms: _330  and  _332
REMARK  135  A    between atoms: _332  and  _333
REMARK  136  A    between atoms: _332  and  _335
REMARK  137  A    between atoms: _335  and  _336
REMARK  138  A    between atoms: _339  and  _341
REMARK  139  A    between atoms: _341  and  _342
REMARK  140  A    between atoms: _345  and  _347
REMARK  141  A    between atoms: _347  and  _348
REMARK  142  A    between atoms: _347  and  _350
REMARK  143  A    between atoms: _350  and  _351
REMARK  144  A    between atoms: _356  and  _357
REMARK  145  A    between atoms: _359  and  _361
REMARK  146  A    between atoms: _361  and  _362
REMARK  147  A    between atoms: _361  and  _364
REMARK  148  A    between atoms: _364  and  _365
REMARK  149  A    between atoms: _365  and  _366
REMARK  150  A    between atoms: _369  and  _371
REMARK  151  A    between atoms: _371  and  _372
REMARK  152  A    between atoms: _371  and  _374
REMARK  153  A    between atoms: _374  and  _375
REMARK  154  A    between atoms: _378  and  _380
REMARK  155  A    between atoms: _380  and  _381
REMARK  156  A    between atoms: _384  and  _386
REMARK  157  A    between atoms: _386  and  _387
REMARK  158  A    between atoms: _386  and  _389
REMARK  159  A    between atoms: _389  and  _390
REMARK  160  A    between atoms: _390  and  _391
REMARK  161  A    between atoms: _391  and  _392
REMARK  162  A    between atoms: _401  and  _403
REMARK  163  A    between atoms: _403  and  _404
REMARK  164  A    between atoms: _403  and  _406
REMARK  165  A    between atoms: _406  and  _407
REMARK  166  A    between atoms: _417  and  _419
REMARK  167  A    between atoms: _419  and  _420
REMARK  168  A    between atoms: _419  and  _422
REMARK  169  A    between atoms: _422  and  _423
REMARK  170  A    between atoms: _428  and  _429
REMARK  171  A    between atoms: _431  and  _433
REMARK  172  A    between atoms: _433  and  _434
REMARK  173  A    between atoms: _433  and  _436
REMARK  174  A    between atoms: _436  and  _437
REMARK  175  A    between atoms: _442  and  _443
REMARK  176  A    between atoms: _445  and  _447
REMARK  177  A    between atoms: _447  and  _448
REMARK  178  A    between atoms: _447  and  _450
REMARK  179  A    between atoms: _450  and  _451
REMARK  180  A    between atoms: _451  and  _452
REMARK  181  A    between atoms: _452  and  _453
REMARK  182  A    between atoms: _453  and  _454
REMARK  183  A    between atoms: _458  and  _460
REMARK  184  A    between atoms: _460  and  _461
REMARK  185  A    between atoms: _460  and  _463
REMARK  186  A    between atoms: _463  and  _464
REMARK  187  A    between atoms: _467  and  _469
REMARK  188  A    between atoms: _469  and  _470
REMARK  189  A    between atoms: _469  and  _472
REMARK  190  A    between atoms: _475  and  _477
REMARK  191  A    between atoms: _477  and  _478
REMARK  192  A    between atoms: _477  and  _480
REMARK  193  A    between atoms: _480  and  _481
REMARK  194  A    between atoms: _484  and  _486
REMARK  195  A    between atoms: _486  and  _487
REMARK  196  A    between atoms: _486  and  _489
REMARK  197  A    between atoms: _489  and  _490
REMARK  198  A    between atoms: _492  and  _494
REMARK  199  A    between atoms: _494  and  _495
REMARK  200  A    between atoms: _497  and  _499
REMARK  201  A    between atoms: _499  and  _500
REMARK  202  A    between atoms: _499  and  _502
REMARK  203  A    between atoms: _502  and  _503
REMARK  204  A    between atoms: _506  and  _508
REMARK  205  A    between atoms: _508  and  _509
REMARK  206  A    between atoms: _508  and  _511
REMARK  207  A    between atoms: _511  and  _512
REMARK  208  A    between atoms: _515  and  _517
REMARK  209  A    between atoms: _517  and  _518
REMARK  210  A    between atoms: _517  and  _520
REMARK  211  A    between atoms: _520  and  _521
REMARK  212  A    between atoms: _526  and  _528
REMARK  213  A    between atoms: _528  and  _529
REMARK  214  A    between atoms: _528  and  _531
REMARK  215  A    between atoms: _531  and  _532
REMARK  216  A    between atoms: _532  and  _533
REMARK  217  A    between atoms: _533  and  _534
REMARK  218  A    between atoms: _543  and  _545
REMARK  219  A    between atoms: _545  and  _546
REMARK  220  A    between atoms: _545  and  _548
REMARK  221  A    between atoms: _548  and  _549
REMARK  222  A    between atoms: _549  and  _550
REMARK  223  A    between atoms: _550  and  _551
REMARK  224  A    between atoms: _560  and  _562
REMARK  225  A    between atoms: _562  and  _563
REMARK  226  A    between atoms: _562  and  _565
REMARK  227  A    between atoms: _565  and  _566
REMARK  228  A    between atoms: _568  and  _570
REMARK  229  A    between atoms: _570  and  _571
REMARK  230  A    between atoms: _570  and  _573
REMARK  231  A    between atoms: _573  and  _574
REMARK  232  A    between atoms: _574  and  _575
REMARK  233  A    between atoms: _580  and  _582
REMARK  234  A    between atoms: _582  and  _583
REMARK  235  A    between atoms: _582  and  _585
REMARK  236  A    between atoms: _585  and  _586
REMARK  237  A    between atoms: _588  and  _590
REMARK  238  A    between atoms: _590  and  _591
REMARK  239  A    between atoms: _590  and  _593
REMARK  240  A    between atoms: _593  and  _594
REMARK  241  A    between atoms: _596  and  _598
REMARK  242  A    between atoms: _598  and  _599
REMARK  243  A    between atoms: _598  and  _601
REMARK  244  A    between atoms: _601  and  _602
REMARK  245  A    between atoms: _605  and  _607
REMARK  246  A    between atoms: _607  and  _608
REMARK  247  A    between atoms: _607  and  _610
REMARK  248  A    between atoms: _610  and  _611
REMARK  249  A    between atoms: _614  and  _616
REMARK  250  A    between atoms: _616  and  _617
REMARK  251  A    between atoms: _616  and  _619
REMARK  252  A    between atoms: _622  and  _624
REMARK  253  A    between atoms: _624  and  _625
REMARK  254  A    between atoms: _627  and  _629
REMARK  255  A    between atoms: _629  and  _630
REMARK  256  A    between atoms: _633  and  _635
REMARK  257  A    between atoms: _635  and  _636
REMARK  258  A    between atoms: _635  and  _638
REMARK                            x       y       z     vdW  Elec       q    Type
REMARK                         _______ _______ _______ _____ _____    ______ ____
ROOT
ATOM      1  O   HOH     1      14.769   6.348  22.107  0.00  0.00    +0.000 OA
ENDROOT
TORSDOF 0
REMARK  Name = ../refined-set-2016/3lpk/3lpk_pocket.pdb
REMARK  258 active torsions:
REMARK  status: ('A' for Active; 'I' for Inactive)
REMARK    1  A    between atoms: _1  and  _3
REMARK    2  A    between atoms: _3  and  _4
REMARK    3  A    between atoms: _3  and  _6
REMARK    4  A    between atoms: _6  and  _7
REMARK    5  A    between atoms: _7  and  _8
REMARK    6  A    between atoms: _8  and  _9
REMARK    7  A    between atoms: _9  and  _10
REMARK    8  A    between atoms: _14  and  _16
REMARK    9  A    between atoms: _16  and  _17
REMARK   10  A    between atoms: _16  and  _19
REMARK   11  A    between atoms: _19  and  _20
REMARK   12  A    between atoms: _22  and  _24
REMARK   13  A    between atoms: _24  and  _25
REMARK   14  A    between atoms: _27  and  _29
REMARK   15  A    between atoms: _29  and  _30
REMARK   16  A    between atoms: _29  and  _32
REMARK   17  A    between atoms: _32  and  _33
REMARK   18  A    between atoms: _33  and  _34
REMARK   19  A    between atoms: _39  and  _41
REMARK   20  A    between atoms: _41  and  _42
REMARK   21  A    between atoms: _44  and  _46
REMARK   22  A    between atoms: _46  and  _47
REMARK   23  A    between atoms: _46  and  _49
REMARK   24  A    between atoms: _49  and  _50
REMARK   25  A    between atoms: _55  and  _56
REMARK   26  A    between atoms: _58  and  _60
REMARK   27  A    between atoms: _60  and  _61
REMARK   28  A    between atoms: _60  and  _63
REMARK   29  A    between atoms: _63  and  _64
REMARK   30  A    between atoms: _67  and  _69
REMARK   31  A    between atoms: _69  and  _70
REMARK   32  A    between atoms: _69  and  _72
REMARK   33  A    between atoms: _75  and  _77
REMARK   34  A    between atoms: _77  and  _78
REMARK   35  A    between atoms: _77  and  _80
REMARK   36  A    between atoms: _80  and  _81
REMARK   37  A    between atoms: _84  and  _86
REMARK   38  A    between atoms: _86  and  _87
REMARK   39  A    between atoms: _86  and  _89
REMARK   40  A    between atoms: _89  and  _90
REMARK   41  A    between atoms: _93  and  _95
REMARK   42  A    between atoms: _95  and  _96
REMARK   43  A    between atoms: _98  and  _100
REMARK   44  A    between atoms: _100  and  _101
REMARK   45  A    between atoms: _100  and  _103
REMARK   46  A    between atoms: _103  and  _104
REMARK   47  A    between atoms: _106  and  _108
REMARK   48  A    between atoms: _108  and  _109
REMARK   49  A    between atoms: _108  and  _111
REMARK   50  A    between atoms: _111  and  _112
REMARK   51  A    between atoms: _114  and  _116
REMARK   52  A    between atoms: _116  and  _117
REMARK   53  A    between atoms: _116  and  _119
REMARK   54  A    between atoms: _119  and  _120
REMARK   55  A    between atoms: _125  and  _127
REMARK   56  A    between atoms: _127  and  _128
REMARK   57  A    between atoms: _127  and  _130
REMARK   58  A    between atoms: _130  and  _131
REMARK   59  A    between atoms: _136  and  _137
REMARK   60  A    between atoms: _139  and  _141
REMARK   61  A    between atoms: _141  and  _142
REMARK   62  A    between atoms: _141  and  _144
REMARK   63  A    between atoms: _148  and  _149
REMARK   64  A    between atoms: _154  and  _156
REMARK   65  A    between atoms: _156  and  _157
REMARK   66  A    between atoms: _156  and  _159
REMARK   67  A    between atoms: _159  and  _160
REMARK   68  A    between atoms: _165  and  _166
REMARK   69  A    between atoms: _168  and  _170
REMARK   70  A    between atoms: _170  and  _171
REMARK   71  A    between atoms: _170  and  _173
REMARK   72  A    between atoms: _173  and  _174
REMARK   73  A    between atoms: _177  and  _179
REMARK   74  A    between atoms: _179  and  _180
REMARK   75  A    between atoms: _179  and  _182
REMARK   76  A    between atoms: _182  and  _183
REMARK   77  A    between atoms: _183  and  _184
REMARK   78  A    between atoms: _189  and  _191
REMARK   79  A    between atoms: _191  and  _192
REMARK   80  A    between atoms: _194  and  _196
REMARK   81  A    between atoms: _196  and  _197
REMARK   82  A    between atoms: _196  and  _199
REMARK   83  A    between atoms: _199  and  _200
REMARK   84  A    between atoms: _200  and  _201
REMARK   85  A    between atoms: _201  and  _202
REMARK   86  A    between atoms: _202  and  _203
REMARK   87  A    between atoms: _207  and  _209
REMARK   88  A    between atoms: _209  and  _210
REMARK   89  A    between atoms: _209  and  _212
REMARK   90  A    between atoms: _212  and  _213
REMARK   91  A    between atoms: _223  and  _225
REMARK   92  A    between atoms: _225  and  _226
REMARK   93  A    between atoms: _225  and  _228
REMARK   94  A    between atoms: _228  and  _229
REMARK   95  A    between atoms: _232  and  _234
REMARK   96  A    between atoms: _234  and  _235
REMARK   97  A    between atoms: _234  and  _237
REMARK   98  A    between atoms: _237  and  _238
REMARK   99  A    between atoms: _238  and  _239
REMARK  100  A    between atoms: _239  and  _240
REMARK  101  A    between atoms: _240  and  _241
REMARK  102  A    between atoms: _245  and  _247
REMARK  103  A    between atoms: _247  and  _248
REMARK  104  A    between atoms: _247  and  _250
REMARK  105  A    between atoms: _250  and  _251
REMARK  106  A    between atoms: _257  and  _259
REMARK  107  A    between atoms: _259  and  _260
REMARK  108  A    between atoms: _259  and  _262
REMARK  109  A    between atoms: _262  and  _263
REMARK  110  A    between atoms: _269  and  _271
REMARK  111  A    between atoms: _271  and  _272
REMARK  112  A    between atoms: _271  and  _274
REMARK  113  A    between atoms: _274  and  _275
REMARK  114  A    between atoms: _278  and  _280
REMARK  115  A    between atoms: _280  and  _281
REMARK  116  A    between atoms: _280  and  _283
REMARK  117  A    between atoms: _283  and  _284
REMARK  118  A    between atoms: _286  and  _288
REMARK  119  A    between atoms: _288  and  _289
REMARK  120  A    between atoms: _288  and  _291
REMARK  121  A    between atoms: _291  and  _292
REMARK  122  A    between atoms: _302  and  _304
REMARK  123  A    between atoms: _304  and  _305
REMARK  124  A    between atoms: _307  and  _309
REMARK  125  A    between atoms: _309  and  _310
REMARK  126  A    between atoms: _309  and  _312
REMARK  127  A    between atoms: _312  and  _313
REMARK  128  A    between atoms: _316  and  _318
REMARK  129  A    between atoms: _318  and  _319
REMARK  130  A    between atoms: _318  and  _321
REMARK  131  A    between atoms: _321  and  _322
REMARK  132  A    between atoms: _325  and  _327
REMARK  133  A    between atoms: _327  and  _328
REMARK  134  A    between atoms: _330  and  _332
REMARK  135  A    between atoms: _332  and  _333
REMARK  136  A    between atoms: _332  and  _335
REMARK  137  A    between atoms: _335  and  _336
REMARK  138  A    between atoms: _339  and  _341
REMARK  139  A    between atoms: _341  and  _342
REMARK  140  A    between atoms: _345  and  _347
REMARK  141  A    between atoms: _347  and  _348
REMARK  142  A    between atoms: _347  and  _350
REMARK  143  A    between atoms: _350  and  _351
REMARK  144  A    between atoms: _356  and  _357
REMARK  145  A    between atoms: _359  and  _361
REMARK  146  A    between atoms: _361  and  _362
REMARK  147  A    between atoms: _361  and  _364
REMARK  148  A    between atoms: _364  and  _365
REMARK  149  A    between atoms: _365  and  _366
REMARK  150  A    between atoms: _369  and  _371
REMARK  151  A    between atoms: _371  and  _372
REMARK  152  A    between atoms: _371  and  _374
REMARK  153  A    between atoms: _374  and  _375
REMARK  154  A    between atoms: _378  and  _380
REMARK  155  A    between atoms: _380  and  _381
REMARK  156  A    between atoms: _384  and  _386
REMARK  157  A    between atoms: _386  and  _387
REMARK  158  A    between atoms: _386  and  _389
REMARK  159  A    between atoms: _389  and  _390
REMARK  160  A    between atoms: _390  and  _391
REMARK  161  A    between atoms: _391  and  _392
REMARK  162  A    between atoms: _401  and  _403
REMARK  163  A    between atoms: _403  and  _404
REMARK  164  A    between atoms: _403  and  _406
REMARK  165  A    between atoms: _406  and  _407
REMARK  166  A    between atoms: _417  and  _419
REMARK  167  A    between atoms: _419  and  _420
REMARK  168  A    between atoms: _419  and  _422
REMARK  169  A    between atoms: _422  and  _423
REMARK  170  A    between atoms: _428  and  _429
REMARK  171  A    between atoms: _431  and  _433
REMARK  172  A    between atoms: _433  and  _434
REMARK  173  A    between atoms: _433  and  _436
REMARK  174  A    between atoms: _436  and  _437
REMARK  175  A    between atoms: _442  and  _443
REMARK  176  A    between atoms: _445  and  _447
REMARK  177  A    between atoms: _447  and  _448
REMARK  178  A    between atoms: _447  and  _450
REMARK  179  A    between atoms: _450  and  _451
REMARK  180  A    between atoms: _451  and  _452
REMARK  181  A    between atoms: _452  and  _453
REMARK  182  A    between atoms: _453  and  _454
REMARK  183  A    between atoms: _458  and  _460
REMARK  184  A    between atoms: _460  and  _461
REMARK  185  A    between atoms: _460  and  _463
REMARK  186  A    between atoms: _463  and  _464
REMARK  187  A    between atoms: _467  and  _469
REMARK  188  A    between atoms: _469  and  _470
REMARK  189  A    between atoms: _469  and  _472
REMARK  190  A    between atoms: _475  and  _477
REMARK  191  A    between atoms: _477  and  _478
REMARK  192  A    between atoms: _477  and  _480
REMARK  193  A    between atoms: _480  and  _481
REMARK  194  A    between atoms: _484  and  _486
REMARK  195  A    between atoms: _486  and  _487
REMARK  196  A    between atoms: _486  and  _489
REMARK  197  A    between atoms: _489  and  _490
REMARK  198  A    between atoms: _492  and  _494
REMARK  199  A    between atoms: _494  and  _495
REMARK  200  A    between atoms: _497  and  _499
REMARK  201  A    between atoms: _499  and  _500
REMARK  202  A    between atoms: _499  and  _502
REMARK  203  A    between atoms: _502  and  _503
REMARK  204  A    between atoms: _506  and  _508
REMARK  205  A    between atoms: _508  and  _509
REMARK  206  A    between atoms: _508  and  _511
REMARK  207  A    between atoms: _511  and  _512
REMARK  208  A    between atoms: _515  and  _517
REMARK  209  A    between atoms: _517  and  _518
REMARK  210  A    between atoms: _517  and  _520
REMARK  211  A    between atoms: _520  and  _521
REMARK  212  A    between atoms: _526  and  _528
REMARK  213  A    between atoms: _528  and  _529
REMARK  214  A    between atoms: _528  and  _531
REMARK  215  A    between atoms: _531  and  _532
REMARK  216  A    between atoms: _532  and  _533
REMARK  217  A    between atoms: _533  and  _534
REMARK  218  A    between atoms: _543  and  _545
REMARK  219  A    between atoms: _545  and  _546
REMARK  220  A    between atoms: _545  and  _548
REMARK  221  A    between atoms: _548  and  _549
REMARK  222  A    between atoms: _549  and  _550
REMARK  223  A    between atoms: _550  and  _551
REMARK  224  A    between atoms: _560  and  _562
REMARK  225  A    between atoms: _562  and  _563
REMARK  226  A    between atoms: _562  and  _565
REMARK  227  A    between atoms: _565  and  _566
REMARK  228  A    between atoms: _568  and  _570
REMARK  229  A    between atoms: _570  and  _571
REMARK  230  A    between atoms: _570  and  _573
REMARK  231  A    between atoms: _573  and  _574
REMARK  232  A    between atoms: _574  and  _575
REMARK  233  A    between atoms: _580  and  _582
REMARK  234  A    between atoms: _582  and  _583
REMARK  235  A    between atoms: _582  and  _585
REMARK  236  A    between atoms: _585  and  _586
REMARK  237  A    between atoms: _588  and  _590
REMARK  238  A    between atoms: _590  and  _591
REMARK  239  A    between atoms: _590  and  _593
REMARK  240  A    between atoms: _593  and  _594
REMARK  241  A    between atoms: _596  and  _598
REMARK  242  A    between atoms: _598  and  _599
REMARK  243  A    between atoms: _598  and  _601
REMARK  244  A    between atoms: _601  and  _602
REMARK  245  A    between atoms: _605  and  _607
REMARK  246  A    between atoms: _607  and  _608
REMARK  247  A    between atoms: _607  and  _610
REMARK  248  A    between atoms: _610  and  _611
REMARK  249  A    between atoms: _614  and  _616
REMARK  250  A    between atoms: _616  and  _617
REMARK  251  A    between atoms: _616  and  _619
REMARK  252  A    between atoms: _622  and  _624
REMARK  253  A    between atoms: _624  and  _625
REMARK  254  A    between atoms: _627  and  _629
REMARK  255  A    between atoms: _629  and  _630
REMARK  256  A    between atoms: _633  and  _635
REMARK  257  A    between atoms: _635  and  _636
REMARK  258  A    between atoms: _635  and  _638
REMARK                            x       y       z     vdW  Elec       q    Type
REMARK                         _______ _______ _______ _____ _____    ______ ____
ROOT
ATOM      1  O   HOH     1      29.442   4.894  22.540  0.00  0.00    +0.000 OA
ENDROOT
TORSDOF 0
REMARK  Name = ../refined-set-2016/3lpk/3lpk_pocket.pdb
REMARK  258 active torsions:
REMARK  status: ('A' for Active; 'I' for Inactive)
REMARK    1  A    between atoms: _1  and  _3
REMARK    2  A    between atoms: _3  and  _4
REMARK    3  A    between atoms: _3  and  _6
REMARK    4  A    between atoms: _6  and  _7
REMARK    5  A    between atoms: _7  and  _8
REMARK    6  A    between atoms: _8  and  _9
REMARK    7  A    between atoms: _9  and  _10
REMARK    8  A    between atoms: _14  and  _16
REMARK    9  A    between atoms: _16  and  _17
REMARK   10  A    between atoms: _16  and  _19
REMARK   11  A    between atoms: _19  and  _20
REMARK   12  A    between atoms: _22  and  _24
REMARK   13  A    between atoms: _24  and  _25
REMARK   14  A    between atoms: _27  and  _29
REMARK   15  A    between atoms: _29  and  _30
REMARK   16  A    between atoms: _29  and  _32
REMARK   17  A    between atoms: _32  and  _33
REMARK   18  A    between atoms: _33  and  _34
REMARK   19  A    between atoms: _39  and  _41
REMARK   20  A    between atoms: _41  and  _42
REMARK   21  A    between atoms: _44  and  _46
REMARK   22  A    between atoms: _46  and  _47
REMARK   23  A    between atoms: _46  and  _49
REMARK   24  A    between atoms: _49  and  _50
REMARK   25  A    between atoms: _55  and  _56
REMARK   26  A    between atoms: _58  and  _60
REMARK   27  A    between atoms: _60  and  _61
REMARK   28  A    between atoms: _60  and  _63
REMARK   29  A    between atoms: _63  and  _64
REMARK   30  A    between atoms: _67  and  _69
REMARK   31  A    between atoms: _69  and  _70
REMARK   32  A    between atoms: _69  and  _72
REMARK   33  A    between atoms: _75  and  _77
REMARK   34  A    between atoms: _77  and  _78
REMARK   35  A    between atoms: _77  and  _80
REMARK   36  A    between atoms: _80  and  _81
REMARK   37  A    between atoms: _84  and  _86
REMARK   38  A    between atoms: _86  and  _87
REMARK   39  A    between atoms: _86  and  _89
REMARK   40  A    between atoms: _89  and  _90
REMARK   41  A    between atoms: _93  and  _95
REMARK   42  A    between atoms: _95  and  _96
REMARK   43  A    between atoms: _98  and  _100
REMARK   44  A    between atoms: _100  and  _101
REMARK   45  A    between atoms: _100  and  _103
REMARK   46  A    between atoms: _103  and  _104
REMARK   47  A    between atoms: _106  and  _108
REMARK   48  A    between atoms: _108  and  _109
REMARK   49  A    between atoms: _108  and  _111
REMARK   50  A    between atoms: _111  and  _112
REMARK   51  A    between atoms: _114  and  _116
REMARK   52  A    between atoms: _116  and  _117
REMARK   53  A    between atoms: _116  and  _119
REMARK   54  A    between atoms: _119  and  _120
REMARK   55  A    between atoms: _125  and  _127
REMARK   56  A    between atoms: _127  and  _128
REMARK   57  A    between atoms: _127  and  _130
REMARK   58  A    between atoms: _130  and  _131
REMARK   59  A    between atoms: _136  and  _137
REMARK   60  A    between atoms: _139  and  _141
REMARK   61  A    between atoms: _141  and  _142
REMARK   62  A    between atoms: _141  and  _144
REMARK   63  A    between atoms: _148  and  _149
REMARK   64  A    between atoms: _154  and  _156
REMARK   65  A    between atoms: _156  and  _157
REMARK   66  A    between atoms: _156  and  _159
REMARK   67  A    between atoms: _159  and  _160
REMARK   68  A    between atoms: _165  and  _166
REMARK   69  A    between atoms: _168  and  _170
REMARK   70  A    between atoms: _170  and  _171
REMARK   71  A    between atoms: _170  and  _173
REMARK   72  A    between atoms: _173  and  _174
REMARK   73  A    between atoms: _177  and  _179
REMARK   74  A    between atoms: _179  and  _180
REMARK   75  A    between atoms: _179  and  _182
REMARK   76  A    between atoms: _182  and  _183
REMARK   77  A    between atoms: _183  and  _184
REMARK   78  A    between atoms: _189  and  _191
REMARK   79  A    between atoms: _191  and  _192
REMARK   80  A    between atoms: _194  and  _196
REMARK   81  A    between atoms: _196  and  _197
REMARK   82  A    between atoms: _196  and  _199
REMARK   83  A    between atoms: _199  and  _200
REMARK   84  A    between atoms: _200  and  _201
REMARK   85  A    between atoms: _201  and  _202
REMARK   86  A    between atoms: _202  and  _203
REMARK   87  A    between atoms: _207  and  _209
REMARK   88  A    between atoms: _209  and  _210
REMARK   89  A    between atoms: _209  and  _212
REMARK   90  A    between atoms: _212  and  _213
REMARK   91  A    between atoms: _223  and  _225
REMARK   92  A    between atoms: _225  and  _226
REMARK   93  A    between atoms: _225  and  _228
REMARK   94  A    between atoms: _228  and  _229
REMARK   95  A    between atoms: _232  and  _234
REMARK   96  A    between atoms: _234  and  _235
REMARK   97  A    between atoms: _234  and  _237
REMARK   98  A    between atoms: _237  and  _238
REMARK   99  A    between atoms: _238  and  _239
REMARK  100  A    between atoms: _239  and  _240
REMARK  101  A    between atoms: _240  and  _241
REMARK  102  A    between atoms: _245  and  _247
REMARK  103  A    between atoms: _247  and  _248
REMARK  104  A    between atoms: _247  and  _250
REMARK  105  A    between atoms: _250  and  _251
REMARK  106  A    between atoms: _257  and  _259
REMARK  107  A    between atoms: _259  and  _260
REMARK  108  A    between atoms: _259  and  _262
REMARK  109  A    between atoms: _262  and  _263
REMARK  110  A    between atoms: _269  and  _271
REMARK  111  A    between atoms: _271  and  _272
REMARK  112  A    between atoms: _271  and  _274
REMARK  113  A    between atoms: _274  and  _275
REMARK  114  A    between atoms: _278  and  _280
REMARK  115  A    between atoms: _280  and  _281
REMARK  116  A    between atoms: _280  and  _283
REMARK  117  A    between atoms: _283  and  _284
REMARK  118  A    between atoms: _286  and  _288
REMARK  119  A    between atoms: _288  and  _289
REMARK  120  A    between atoms: _288  and  _291
REMARK  121  A    between atoms: _291  and  _292
REMARK  122  A    between atoms: _302  and  _304
REMARK  123  A    between atoms: _304  and  _305
REMARK  124  A    between atoms: _307  and  _309
REMARK  125  A    between atoms: _309  and  _310
REMARK  126  A    between atoms: _309  and  _312
REMARK  127  A    between atoms: _312  and  _313
REMARK  128  A    between atoms: _316  and  _318
REMARK  129  A    between atoms: _318  and  _319
REMARK  130  A    between atoms: _318  and  _321
REMARK  131  A    between atoms: _321  and  _322
REMARK  132  A    between atoms: _325  and  _327
REMARK  133  A    between atoms: _327  and  _328
REMARK  134  A    between atoms: _330  and  _332
REMARK  135  A    between atoms: _332  and  _333
REMARK  136  A    between atoms: _332  and  _335
REMARK  137  A    between atoms: _335  and  _336
REMARK  138  A    between atoms: _339  and  _341
REMARK  139  A    between atoms: _341  and  _342
REMARK  140  A    between atoms: _345  and  _347
REMARK  141  A    between atoms: _347  and  _348
REMARK  142  A    between atoms: _347  and  _350
REMARK  143  A    between atoms: _350  and  _351
REMARK  144  A    between atoms: _356  and  _357
REMARK  145  A    between atoms: _359  and  _361
REMARK  146  A    between atoms: _361  and  _362
REMARK  147  A    between atoms: _361  and  _364
REMARK  148  A    between atoms: _364  and  _365
REMARK  149  A    between atoms: _365  and  _366
REMARK  150  A    between atoms: _369  and  _371
REMARK  151  A    between atoms: _371  and  _372
REMARK  152  A    between atoms: _371  and  _374
REMARK  153  A    between atoms: _374  and  _375
REMARK  154  A    between atoms: _378  and  _380
REMARK  155  A    between atoms: _380  and  _381
REMARK  156  A    between atoms: _384  and  _386
REMARK  157  A    between atoms: _386  and  _387
REMARK  158  A    between atoms: _386  and  _389
REMARK  159  A    between atoms: _389  and  _390
REMARK  160  A    between atoms: _390  and  _391
REMARK  161  A    between atoms: _391  and  _392
REMARK  162  A    between atoms: _401  and  _403
REMARK  163  A    between atoms: _403  and  _404
REMARK  164  A    between atoms: _403  and  _406
REMARK  165  A    between atoms: _406  and  _407
REMARK  166  A    between atoms: _417  and  _419
REMARK  167  A    between atoms: _419  and  _420
REMARK  168  A    between atoms: _419  and  _422
REMARK  169  A    between atoms: _422  and  _423
REMARK  170  A    between atoms: _428  and  _429
REMARK  171  A    between atoms: _431  and  _433
REMARK  172  A    between atoms: _433  and  _434
REMARK  173  A    between atoms: _433  and  _436
REMARK  174  A    between atoms: _436  and  _437
REMARK  175  A    between atoms: _442  and  _443
REMARK  176  A    between atoms: _445  and  _447
REMARK  177  A    between atoms: _447  and  _448
REMARK  178  A    between atoms: _447  and  _450
REMARK  179  A    between atoms: _450  and  _451
REMARK  180  A    between atoms: _451  and  _452
REMARK  181  A    between atoms: _452  and  _453
REMARK  182  A    between atoms: _453  and  _454
REMARK  183  A    between atoms: _458  and  _460
REMARK  184  A    between atoms: _460  and  _461
REMARK  185  A    between atoms: _460  and  _463
REMARK  186  A    between atoms: _463  and  _464
REMARK  187  A    between atoms: _467  and  _469
REMARK  188  A    between atoms: _469  and  _470
REMARK  189  A    between atoms: _469  and  _472
REMARK  190  A    between atoms: _475  and  _477
REMARK  191  A    between atoms: _477  and  _478
REMARK  192  A    between atoms: _477  and  _480
REMARK  193  A    between atoms: _480  and  _481
REMARK  194  A    between atoms: _484  and  _486
REMARK  195  A    between atoms: _486  and  _487
REMARK  196  A    between atoms: _486  and  _489
REMARK  197  A    between atoms: _489  and  _490
REMARK  198  A    between atoms: _492  and  _494
REMARK  199  A    between atoms: _494  and  _495
REMARK  200  A    between atoms: _497  and  _499
REMARK  201  A    between atoms: _499  and  _500
REMARK  202  A    between atoms: _499  and  _502
REMARK  203  A    between atoms: _502  and  _503
REMARK  204  A    between atoms: _506  and  _508
REMARK  205  A    between atoms: _508  and  _509
REMARK  206  A    between atoms: _508  and  _511
REMARK  207  A    between atoms: _511  and  _512
REMARK  208  A    between atoms: _515  and  _517
REMARK  209  A    between atoms: _517  and  _518
REMARK  210  A    between atoms: _517  and  _520
REMARK  211  A    between atoms: _520  and  _521
REMARK  212  A    between atoms: _526  and  _528
REMARK  213  A    between atoms: _528  and  _529
REMARK  214  A    between atoms: _528  and  _531
REMARK  215  A    between atoms: _531  and  _532
REMARK  216  A    between atoms: _532  and  _533
REMARK  217  A    between atoms: _533  and  _534
REMARK  218  A    between atoms: _543  and  _545
REMARK  219  A    between atoms: _545  and  _546
REMARK  220  A    between atoms: _545  and  _548
REMARK  221  A    between atoms: _548  and  _549
REMARK  222  A    between atoms: _549  and  _550
REMARK  223  A    between atoms: _550  and  _551
REMARK  224  A    between atoms: _560  and  _562
REMARK  225  A    between atoms: _562  and  _563
REMARK  226  A    between atoms: _562  and  _565
REMARK  227  A    between atoms: _565  and  _566
REMARK  228  A    between atoms: _568  and  _570
REMARK  229  A    between atoms: _570  and  _571
REMARK  230  A    between atoms: _570  and  _573
REMARK  231  A    between atoms: _573  and  _574
REMARK  232  A    between atoms: _574  and  _575
REMARK  233  A    between atoms: _580  and  _582
REMARK  234  A    between atoms: _582  and  _583
REMARK  235  A    between atoms: _582  and  _585
REMARK  236  A    between atoms: _585  and  _586
REMARK  237  A    between atoms: _588  and  _590
REMARK  238  A    between atoms: _590  and  _591
REMARK  239  A    between atoms: _590  and  _593
REMARK  240  A    between atoms: _593  and  _594
REMARK  241  A    between atoms: _596  and  _598
REMARK  242  A    between atoms: _598  and  _599
REMARK  243  A    between atoms: _598  and  _601
REMARK  244  A    between atoms: _601  and  _602
REMARK  245  A    between atoms: _605  and  _607
REMARK  246  A    between atoms: _607  and  _608
REMARK  247  A    between atoms: _607  and  _610
REMARK  248  A    between atoms: _610  and  _611
REMARK  249  A    between atoms: _614  and  _616
REMARK  250  A    between atoms: _616  and  _617
REMARK  251  A    between atoms: _616  and  _619
REMARK  252  A    between atoms: _622  and  _624
REMARK  253  A    between atoms: _624  and  _625
REMARK  254  A    between atoms: _627  and  _629
REMARK  255  A    between atoms: _629  and  _630
REMARK  256  A    between atoms: _633  and  _635
REMARK  257  A    between atoms: _635  and  _636
REMARK  258  A    between atoms: _635  and  _638
REMARK                            x       y       z     vdW  Elec       q    Type
REMARK                         _______ _______ _______ _____ _____    ______ ____
ROOT
ATOM      1  O   HOH     1      29.561  15.071  26.622  0.00  0.00    +0.000 OA
ENDROOT
TORSDOF 0
REMARK  Name = ../refined-set-2016/3lpk/3lpk_pocket.pdb
REMARK  258 active torsions:
REMARK  status: ('A' for Active; 'I' for Inactive)
REMARK    1  A    between atoms: _1  and  _3
REMARK    2  A    between atoms: _3  and  _4
REMARK    3  A    between atoms: _3  and  _6
REMARK    4  A    between atoms: _6  and  _7
REMARK    5  A    between atoms: _7  and  _8
REMARK    6  A    between atoms: _8  and  _9
REMARK    7  A    between atoms: _9  and  _10
REMARK    8  A    between atoms: _14  and  _16
REMARK    9  A    between atoms: _16  and  _17
REMARK   10  A    between atoms: _16  and  _19
REMARK   11  A    between atoms: _19  and  _20
REMARK   12  A    between atoms: _22  and  _24
REMARK   13  A    between atoms: _24  and  _25
REMARK   14  A    between atoms: _27  and  _29
REMARK   15  A    between atoms: _29  and  _30
REMARK   16  A    between atoms: _29  and  _32
REMARK   17  A    between atoms: _32  and  _33
REMARK   18  A    between atoms: _33  and  _34
REMARK   19  A    between atoms: _39  and  _41
REMARK   20  A    between atoms: _41  and  _42
REMARK   21  A    between atoms: _44  and  _46
REMARK   22  A    between atoms: _46  and  _47
REMARK   23  A    between atoms: _46  and  _49
REMARK   24  A    between atoms: _49  and  _50
REMARK   25  A    between atoms: _55  and  _56
REMARK   26  A    between atoms: _58  and  _60
REMARK   27  A    between atoms: _60  and  _61
REMARK   28  A    between atoms: _60  and  _63
REMARK   29  A    between atoms: _63  and  _64
REMARK   30  A    between atoms: _67  and  _69
REMARK   31  A    between atoms: _69  and  _70
REMARK   32  A    between atoms: _69  and  _72
REMARK   33  A    between atoms: _75  and  _77
REMARK   34  A    between atoms: _77  and  _78
REMARK   35  A    between atoms: _77  and  _80
REMARK   36  A    between atoms: _80  and  _81
REMARK   37  A    between atoms: _84  and  _86
REMARK   38  A    between atoms: _86  and  _87
REMARK   39  A    between atoms: _86  and  _89
REMARK   40  A    between atoms: _89  and  _90
REMARK   41  A    between atoms: _93  and  _95
REMARK   42  A    between atoms: _95  and  _96
REMARK   43  A    between atoms: _98  and  _100
REMARK   44  A    between atoms: _100  and  _101
REMARK   45  A    between atoms: _100  and  _103
REMARK   46  A    between atoms: _103  and  _104
REMARK   47  A    between atoms: _106  and  _108
REMARK   48  A    between atoms: _108  and  _109
REMARK   49  A    between atoms: _108  and  _111
REMARK   50  A    between atoms: _111  and  _112
REMARK   51  A    between atoms: _114  and  _116
REMARK   52  A    between atoms: _116  and  _117
REMARK   53  A    between atoms: _116  and  _119
REMARK   54  A    between atoms: _119  and  _120
REMARK   55  A    between atoms: _125  and  _127
REMARK   56  A    between atoms: _127  and  _128
REMARK   57  A    between atoms: _127  and  _130
REMARK   58  A    between atoms: _130  and  _131
REMARK   59  A    between atoms: _136  and  _137
REMARK   60  A    between atoms: _139  and  _141
REMARK   61  A    between atoms: _141  and  _142
REMARK   62  A    between atoms: _141  and  _144
REMARK   63  A    between atoms: _148  and  _149
REMARK   64  A    between atoms: _154  and  _156
REMARK   65  A    between atoms: _156  and  _157
REMARK   66  A    between atoms: _156  and  _159
REMARK   67  A    between atoms: _159  and  _160
REMARK   68  A    between atoms: _165  and  _166
REMARK   69  A    between atoms: _168  and  _170
REMARK   70  A    between atoms: _170  and  _171
REMARK   71  A    between atoms: _170  and  _173
REMARK   72  A    between atoms: _173  and  _174
REMARK   73  A    between atoms: _177  and  _179
REMARK   74  A    between atoms: _179  and  _180
REMARK   75  A    between atoms: _179  and  _182
REMARK   76  A    between atoms: _182  and  _183
REMARK   77  A    between atoms: _183  and  _184
REMARK   78  A    between atoms: _189  and  _191
REMARK   79  A    between atoms: _191  and  _192
REMARK   80  A    between atoms: _194  and  _196
REMARK   81  A    between atoms: _196  and  _197
REMARK   82  A    between atoms: _196  and  _199
REMARK   83  A    between atoms: _199  and  _200
REMARK   84  A    between atoms: _200  and  _201
REMARK   85  A    between atoms: _201  and  _202
REMARK   86  A    between atoms: _202  and  _203
REMARK   87  A    between atoms: _207  and  _209
REMARK   88  A    between atoms: _209  and  _210
REMARK   89  A    between atoms: _209  and  _212
REMARK   90  A    between atoms: _212  and  _213
REMARK   91  A    between atoms: _223  and  _225
REMARK   92  A    between atoms: _225  and  _226
REMARK   93  A    between atoms: _225  and  _228
REMARK   94  A    between atoms: _228  and  _229
REMARK   95  A    between atoms: _232  and  _234
REMARK   96  A    between atoms: _234  and  _235
REMARK   97  A    between atoms: _234  and  _237
REMARK   98  A    between atoms: _237  and  _238
REMARK   99  A    between atoms: _238  and  _239
REMARK  100  A    between atoms: _239  and  _240
REMARK  101  A    between atoms: _240  and  _241
REMARK  102  A    between atoms: _245  and  _247
REMARK  103  A    between atoms: _247  and  _248
REMARK  104  A    between atoms: _247  and  _250
REMARK  105  A    between atoms: _250  and  _251
REMARK  106  A    between atoms: _257  and  _259
REMARK  107  A    between atoms: _259  and  _260
REMARK  108  A    between atoms: _259  and  _262
REMARK  109  A    between atoms: _262  and  _263
REMARK  110  A    between atoms: _269  and  _271
REMARK  111  A    between atoms: _271  and  _272
REMARK  112  A    between atoms: _271  and  _274
REMARK  113  A    between atoms: _274  and  _275
REMARK  114  A    between atoms: _278  and  _280
REMARK  115  A    between atoms: _280  and  _281
REMARK  116  A    between atoms: _280  and  _283
REMARK  117  A    between atoms: _283  and  _284
REMARK  118  A    between atoms: _286  and  _288
REMARK  119  A    between atoms: _288  and  _289
REMARK  120  A    between atoms: _288  and  _291
REMARK  121  A    between atoms: _291  and  _292
REMARK  122  A    between atoms: _302  and  _304
REMARK  123  A    between atoms: _304  and  _305
REMARK  124  A    between atoms: _307  and  _309
REMARK  125  A    between atoms: _309  and  _310
REMARK  126  A    between atoms: _309  and  _312
REMARK  127  A    between atoms: _312  and  _313
REMARK  128  A    between atoms: _316  and  _318
REMARK  129  A    between atoms: _318  and  _319
REMARK  130  A    between atoms: _318  and  _321
REMARK  131  A    between atoms: _321  and  _322
REMARK  132  A    between atoms: _325  and  _327
REMARK  133  A    between atoms: _327  and  _328
REMARK  134  A    between atoms: _330  and  _332
REMARK  135  A    between atoms: _332  and  _333
REMARK  136  A    between atoms: _332  and  _335
REMARK  137  A    between atoms: _335  and  _336
REMARK  138  A    between atoms: _339  and  _341
REMARK  139  A    between atoms: _341  and  _342
REMARK  140  A    between atoms: _345  and  _347
REMARK  141  A    between atoms: _347  and  _348
REMARK  142  A    between atoms: _347  and  _350
REMARK  143  A    between atoms: _350  and  _351
REMARK  144  A    between atoms: _356  and  _357
REMARK  145  A    between atoms: _359  and  _361
REMARK  146  A    between atoms: _361  and  _362
REMARK  147  A    between atoms: _361  and  _364
REMARK  148  A    between atoms: _364  and  _365
REMARK  149  A    between atoms: _365  and  _366
REMARK  150  A    between atoms: _369  and  _371
REMARK  151  A    between atoms: _371  and  _372
REMARK  152  A    between atoms: _371  and  _374
REMARK  153  A    between atoms: _374  and  _375
REMARK  154  A    between atoms: _378  and  _380
REMARK  155  A    between atoms: _380  and  _381
REMARK  156  A    between atoms: _384  and  _386
REMARK  157  A    between atoms: _386  and  _387
REMARK  158  A    between atoms: _386  and  _389
REMARK  159  A    between atoms: _389  and  _390
REMARK  160  A    between atoms: _390  and  _391
REMARK  161  A    between atoms: _391  and  _392
REMARK  162  A    between atoms: _401  and  _403
REMARK  163  A    between atoms: _403  and  _404
REMARK  164  A    between atoms: _403  and  _406
REMARK  165  A    between atoms: _406  and  _407
REMARK  166  A    between atoms: _417  and  _419
REMARK  167  A    between atoms: _419  and  _420
REMARK  168  A    between atoms: _419  and  _422
REMARK  169  A    between atoms: _422  and  _423
REMARK  170  A    between atoms: _428  and  _429
REMARK  171  A    between atoms: _431  and  _433
REMARK  172  A    between atoms: _433  and  _434
REMARK  173  A    between atoms: _433  and  _436
REMARK  174  A    between atoms: _436  and  _437
REMARK  175  A    between atoms: _442  and  _443
REMARK  176  A    between atoms: _445  and  _447
REMARK  177  A    between atoms: _447  and  _448
REMARK  178  A    between atoms: _447  and  _450
REMARK  179  A    between atoms: _450  and  _451
REMARK  180  A    between atoms: _451  and  _452
REMARK  181  A    between atoms: _452  and  _453
REMARK  182  A    between atoms: _453  and  _454
REMARK  183  A    between atoms: _458  and  _460
REMARK  184  A    between atoms: _460  and  _461
REMARK  185  A    between atoms: _460  and  _463
REMARK  186  A    between atoms: _463  and  _464
REMARK  187  A    between atoms: _467  and  _469
REMARK  188  A    between atoms: _469  and  _470
REMARK  189  A    between atoms: _469  and  _472
REMARK  190  A    between atoms: _475  and  _477
REMARK  191  A    between atoms: _477  and  _478
REMARK  192  A    between atoms: _477  and  _480
REMARK  193  A    between atoms: _480  and  _481
REMARK  194  A    between atoms: _484  and  _486
REMARK  195  A    between atoms: _486  and  _487
REMARK  196  A    between atoms: _486  and  _489
REMARK  197  A    between atoms: _489  and  _490
REMARK  198  A    between atoms: _492  and  _494
REMARK  199  A    between atoms: _494  and  _495
REMARK  200  A    between atoms: _497  and  _499
REMARK  201  A    between atoms: _499  and  _500
REMARK  202  A    between atoms: _499  and  _502
REMARK  203  A    between atoms: _502  and  _503
REMARK  204  A    between atoms: _506  and  _508
REMARK  205  A    between atoms: _508  and  _509
REMARK  206  A    between atoms: _508  and  _511
REMARK  207  A    between atoms: _511  and  _512
REMARK  208  A    between atoms: _515  and  _517
REMARK  209  A    between atoms: _517  and  _518
REMARK  210  A    between atoms: _517  and  _520
REMARK  211  A    between atoms: _520  and  _521
REMARK  212  A    between atoms: _526  and  _528
REMARK  213  A    between atoms: _528  and  _529
REMARK  214  A    between atoms: _528  and  _531
REMARK  215  A    between atoms: _531  and  _532
REMARK  216  A    between atoms: _532  and  _533
REMARK  217  A    between atoms: _533  and  _534
REMARK  218  A    between atoms: _543  and  _545
REMARK  219  A    between atoms: _545  and  _546
REMARK  220  A    between atoms: _545  and  _548
REMARK  221  A    between atoms: _548  and  _549
REMARK  222  A    between atoms: _549  and  _550
REMARK  223  A    between atoms: _550  and  _551
REMARK  224  A    between atoms: _560  and  _562
REMARK  225  A    between atoms: _562  and  _563
REMARK  226  A    between atoms: _562  and  _565
REMARK  227  A    between atoms: _565  and  _566
REMARK  228  A    between atoms: _568  and  _570
REMARK  229  A    between atoms: _570  and  _571
REMARK  230  A    between atoms: _570  and  _573
REMARK  231  A    between atoms: _573  and  _574
REMARK  232  A    between atoms: _574  and  _575
REMARK  233  A    between atoms: _580  and  _582
REMARK  234  A    between atoms: _582  and  _583
REMARK  235  A    between atoms: _582  and  _585
REMARK  236  A    between atoms: _585  and  _586
REMARK  237  A    between atoms: _588  and  _590
REMARK  238  A    between atoms: _590  and  _591
REMARK  239  A    between atoms: _590  and  _593
REMARK  240  A    between atoms: _593  and  _594
REMARK  241  A    between atoms: _596  and  _598
REMARK  242  A    between atoms: _598  and  _599
REMARK  243  A    between atoms: _598  and  _601
REMARK  244  A    between atoms: _601  and  _602
REMARK  245  A    between atoms: _605  and  _607
REMARK  246  A    between atoms: _607  and  _608
REMARK  247  A    between atoms: _607  and  _610
REMARK  248  A    between atoms: _610  and  _611
REMARK  249  A    between atoms: _614  and  _616
REMARK  250  A    between atoms: _616  and  _617
REMARK  251  A    between atoms: _616  and  _619
REMARK  252  A    between atoms: _622  and  _624
REMARK  253  A    between atoms: _624  and  _625
REMARK  254  A    between atoms: _627  and  _629
REMARK  255  A    between atoms: _629  and  _630
REMARK  256  A    between atoms: _633  and  _635
REMARK  257  A    between atoms: _635  and  _636
REMARK  258  A    between atoms: _635  and  _638
REMARK                            x       y       z     vdW  Elec       q    Type
REMARK                         _______ _______ _______ _____ _____    ______ ____
ROOT
ATOM      1  O   HOH     1      18.211   5.993  19.533  0.00  0.00    +0.000 OA
ENDROOT
TORSDOF 0
REMARK  Name = ../refined-set-2016/3lpk/3lpk_pocket.pdb
REMARK  258 active torsions:
REMARK  status: ('A' for Active; 'I' for Inactive)
REMARK    1  A    between atoms: _1  and  _3
REMARK    2  A    between atoms: _3  and  _4
REMARK    3  A    between atoms: _3  and  _6
REMARK    4  A    between atoms: _6  and  _7
REMARK    5  A    between atoms: _7  and  _8
REMARK    6  A    between atoms: _8  and  _9
REMARK    7  A    between atoms: _9  and  _10
REMARK    8  A    between atoms: _14  and  _16
REMARK    9  A    between atoms: _16  and  _17
REMARK   10  A    between atoms: _16  and  _19
REMARK   11  A    between atoms: _19  and  _20
REMARK   12  A    between atoms: _22  and  _24
REMARK   13  A    between atoms: _24  and  _25
REMARK   14  A    between atoms: _27  and  _29
REMARK   15  A    between atoms: _29  and  _30
REMARK   16  A    between atoms: _29  and  _32
REMARK   17  A    between atoms: _32  and  _33
REMARK   18  A    between atoms: _33  and  _34
REMARK   19  A    between atoms: _39  and  _41
REMARK   20  A    between atoms: _41  and  _42
REMARK   21  A    between atoms: _44  and  _46
REMARK   22  A    between atoms: _46  and  _47
REMARK   23  A    between atoms: _46  and  _49
REMARK   24  A    between atoms: _49  and  _50
REMARK   25  A    between atoms: _55  and  _56
REMARK   26  A    between atoms: _58  and  _60
REMARK   27  A    between atoms: _60  and  _61
REMARK   28  A    between atoms: _60  and  _63
REMARK   29  A    between atoms: _63  and  _64
REMARK   30  A    between atoms: _67  and  _69
REMARK   31  A    between atoms: _69  and  _70
REMARK   32  A    between atoms: _69  and  _72
REMARK   33  A    between atoms: _75  and  _77
REMARK   34  A    between atoms: _77  and  _78
REMARK   35  A    between atoms: _77  and  _80
REMARK   36  A    between atoms: _80  and  _81
REMARK   37  A    between atoms: _84  and  _86
REMARK   38  A    between atoms: _86  and  _87
REMARK   39  A    between atoms: _86  and  _89
REMARK   40  A    between atoms: _89  and  _90
REMARK   41  A    between atoms: _93  and  _95
REMARK   42  A    between atoms: _95  and  _96
REMARK   43  A    between atoms: _98  and  _100
REMARK   44  A    between atoms: _100  and  _101
REMARK   45  A    between atoms: _100  and  _103
REMARK   46  A    between atoms: _103  and  _104
REMARK   47  A    between atoms: _106  and  _108
REMARK   48  A    between atoms: _108  and  _109
REMARK   49  A    between atoms: _108  and  _111
REMARK   50  A    between atoms: _111  and  _112
REMARK   51  A    between atoms: _114  and  _116
REMARK   52  A    between atoms: _116  and  _117
REMARK   53  A    between atoms: _116  and  _119
REMARK   54  A    between atoms: _119  and  _120
REMARK   55  A    between atoms: _125  and  _127
REMARK   56  A    between atoms: _127  and  _128
REMARK   57  A    between atoms: _127  and  _130
REMARK   58  A    between atoms: _130  and  _131
REMARK   59  A    between atoms: _136  and  _137
REMARK   60  A    between atoms: _139  and  _141
REMARK   61  A    between atoms: _141  and  _142
REMARK   62  A    between atoms: _141  and  _144
REMARK   63  A    between atoms: _148  and  _149
REMARK   64  A    between atoms: _154  and  _156
REMARK   65  A    between atoms: _156  and  _157
REMARK   66  A    between atoms: _156  and  _159
REMARK   67  A    between atoms: _159  and  _160
REMARK   68  A    between atoms: _165  and  _166
REMARK   69  A    between atoms: _168  and  _170
REMARK   70  A    between atoms: _170  and  _171
REMARK   71  A    between atoms: _170  and  _173
REMARK   72  A    between atoms: _173  and  _174
REMARK   73  A    between atoms: _177  and  _179
REMARK   74  A    between atoms: _179  and  _180
REMARK   75  A    between atoms: _179  and  _182
REMARK   76  A    between atoms: _182  and  _183
REMARK   77  A    between atoms: _183  and  _184
REMARK   78  A    between atoms: _189  and  _191
REMARK   79  A    between atoms: _191  and  _192
REMARK   80  A    between atoms: _194  and  _196
REMARK   81  A    between atoms: _196  and  _197
REMARK   82  A    between atoms: _196  and  _199
REMARK   83  A    between atoms: _199  and  _200
REMARK   84  A    between atoms: _200  and  _201
REMARK   85  A    between atoms: _201  and  _202
REMARK   86  A    between atoms: _202  and  _203
REMARK   87  A    between atoms: _207  and  _209
REMARK   88  A    between atoms: _209  and  _210
REMARK   89  A    between atoms: _209  and  _212
REMARK   90  A    between atoms: _212  and  _213
REMARK   91  A    between atoms: _223  and  _225
REMARK   92  A    between atoms: _225  and  _226
REMARK   93  A    between atoms: _225  and  _228
REMARK   94  A    between atoms: _228  and  _229
REMARK   95  A    between atoms: _232  and  _234
REMARK   96  A    between atoms: _234  and  _235
REMARK   97  A    between atoms: _234  and  _237
REMARK   98  A    between atoms: _237  and  _238
REMARK   99  A    between atoms: _238  and  _239
REMARK  100  A    between atoms: _239  and  _240
REMARK  101  A    between atoms: _240  and  _241
REMARK  102  A    between atoms: _245  and  _247
REMARK  103  A    between atoms: _247  and  _248
REMARK  104  A    between atoms: _247  and  _250
REMARK  105  A    between atoms: _250  and  _251
REMARK  106  A    between atoms: _257  and  _259
REMARK  107  A    between atoms: _259  and  _260
REMARK  108  A    between atoms: _259  and  _262
REMARK  109  A    between atoms: _262  and  _263
REMARK  110  A    between atoms: _269  and  _271
REMARK  111  A    between atoms: _271  and  _272
REMARK  112  A    between atoms: _271  and  _274
REMARK  113  A    between atoms: _274  and  _275
REMARK  114  A    between atoms: _278  and  _280
REMARK  115  A    between atoms: _280  and  _281
REMARK  116  A    between atoms: _280  and  _283
REMARK  117  A    between atoms: _283  and  _284
REMARK  118  A    between atoms: _286  and  _288
REMARK  119  A    between atoms: _288  and  _289
REMARK  120  A    between atoms: _288  and  _291
REMARK  121  A    between atoms: _291  and  _292
REMARK  122  A    between atoms: _302  and  _304
REMARK  123  A    between atoms: _304  and  _305
REMARK  124  A    between atoms: _307  and  _309
REMARK  125  A    between atoms: _309  and  _310
REMARK  126  A    between atoms: _309  and  _312
REMARK  127  A    between atoms: _312  and  _313
REMARK  128  A    between atoms: _316  and  _318
REMARK  129  A    between atoms: _318  and  _319
REMARK  130  A    between atoms: _318  and  _321
REMARK  131  A    between atoms: _321  and  _322
REMARK  132  A    between atoms: _325  and  _327
REMARK  133  A    between atoms: _327  and  _328
REMARK  134  A    between atoms: _330  and  _332
REMARK  135  A    between atoms: _332  and  _333
REMARK  136  A    between atoms: _332  and  _335
REMARK  137  A    between atoms: _335  and  _336
REMARK  138  A    between atoms: _339  and  _341
REMARK  139  A    between atoms: _341  and  _342
REMARK  140  A    between atoms: _345  and  _347
REMARK  141  A    between atoms: _347  and  _348
REMARK  142  A    between atoms: _347  and  _350
REMARK  143  A    between atoms: _350  and  _351
REMARK  144  A    between atoms: _356  and  _357
REMARK  145  A    between atoms: _359  and  _361
REMARK  146  A    between atoms: _361  and  _362
REMARK  147  A    between atoms: _361  and  _364
REMARK  148  A    between atoms: _364  and  _365
REMARK  149  A    between atoms: _365  and  _366
REMARK  150  A    between atoms: _369  and  _371
REMARK  151  A    between atoms: _371  and  _372
REMARK  152  A    between atoms: _371  and  _374
REMARK  153  A    between atoms: _374  and  _375
REMARK  154  A    between atoms: _378  and  _380
REMARK  155  A    between atoms: _380  and  _381
REMARK  156  A    between atoms: _384  and  _386
REMARK  157  A    between atoms: _386  and  _387
REMARK  158  A    between atoms: _386  and  _389
REMARK  159  A    between atoms: _389  and  _390
REMARK  160  A    between atoms: _390  and  _391
REMARK  161  A    between atoms: _391  and  _392
REMARK  162  A    between atoms: _401  and  _403
REMARK  163  A    between atoms: _403  and  _404
REMARK  164  A    between atoms: _403  and  _406
REMARK  165  A    between atoms: _406  and  _407
REMARK  166  A    between atoms: _417  and  _419
REMARK  167  A    between atoms: _419  and  _420
REMARK  168  A    between atoms: _419  and  _422
REMARK  169  A    between atoms: _422  and  _423
REMARK  170  A    between atoms: _428  and  _429
REMARK  171  A    between atoms: _431  and  _433
REMARK  172  A    between atoms: _433  and  _434
REMARK  173  A    between atoms: _433  and  _436
REMARK  174  A    between atoms: _436  and  _437
REMARK  175  A    between atoms: _442  and  _443
REMARK  176  A    between atoms: _445  and  _447
REMARK  177  A    between atoms: _447  and  _448
REMARK  178  A    between atoms: _447  and  _450
REMARK  179  A    between atoms: _450  and  _451
REMARK  180  A    between atoms: _451  and  _452
REMARK  181  A    between atoms: _452  and  _453
REMARK  182  A    between atoms: _453  and  _454
REMARK  183  A    between atoms: _458  and  _460
REMARK  184  A    between atoms: _460  and  _461
REMARK  185  A    between atoms: _460  and  _463
REMARK  186  A    between atoms: _463  and  _464
REMARK  187  A    between atoms: _467  and  _469
REMARK  188  A    between atoms: _469  and  _470
REMARK  189  A    between atoms: _469  and  _472
REMARK  190  A    between atoms: _475  and  _477
REMARK  191  A    between atoms: _477  and  _478
REMARK  192  A    between atoms: _477  and  _480
REMARK  193  A    between atoms: _480  and  _481
REMARK  194  A    between atoms: _484  and  _486
REMARK  195  A    between atoms: _486  and  _487
REMARK  196  A    between atoms: _486  and  _489
REMARK  197  A    between atoms: _489  and  _490
REMARK  198  A    between atoms: _492  and  _494
REMARK  199  A    between atoms: _494  and  _495
REMARK  200  A    between atoms: _497  and  _499
REMARK  201  A    between atoms: _499  and  _500
REMARK  202  A    between atoms: _499  and  _502
REMARK  203  A    between atoms: _502  and  _503
REMARK  204  A    between atoms: _506  and  _508
REMARK  205  A    between atoms: _508  and  _509
REMARK  206  A    between atoms: _508  and  _511
REMARK  207  A    between atoms: _511  and  _512
REMARK  208  A    between atoms: _515  and  _517
REMARK  209  A    between atoms: _517  and  _518
REMARK  210  A    between atoms: _517  and  _520
REMARK  211  A    between atoms: _520  and  _521
REMARK  212  A    between atoms: _526  and  _528
REMARK  213  A    between atoms: _528  and  _529
REMARK  214  A    between atoms: _528  and  _531
REMARK  215  A    between atoms: _531  and  _532
REMARK  216  A    between atoms: _532  and  _533
REMARK  217  A    between atoms: _533  and  _534
REMARK  218  A    between atoms: _543  and  _545
REMARK  219  A    between atoms: _545  and  _546
REMARK  220  A    between atoms: _545  and  _548
REMARK  221  A    between atoms: _548  and  _549
REMARK  222  A    between atoms: _549  and  _550
REMARK  223  A    between atoms: _550  and  _551
REMARK  224  A    between atoms: _560  and  _562
REMARK  225  A    between atoms: _562  and  _563
REMARK  226  A    between atoms: _562  and  _565
REMARK  227  A    between atoms: _565  and  _566
REMARK  228  A    between atoms: _568  and  _570
REMARK  229  A    between atoms: _570  and  _571
REMARK  230  A    between atoms: _570  and  _573
REMARK  231  A    between atoms: _573  and  _574
REMARK  232  A    between atoms: _574  and  _575
REMARK  233  A    between atoms: _580  and  _582
REMARK  234  A    between atoms: _582  and  _583
REMARK  235  A    between atoms: _582  and  _585
REMARK  236  A    between atoms: _585  and  _586
REMARK  237  A    between atoms: _588  and  _590
REMARK  238  A    between atoms: _590  and  _591
REMARK  239  A    between atoms: _590  and  _593
REMARK  240  A    between atoms: _593  and  _594
REMARK  241  A    between atoms: _596  and  _598
REMARK  242  A    between atoms: _598  and  _599
REMARK  243  A    between atoms: _598  and  _601
REMARK  244  A    between atoms: _601  and  _602
REMARK  245  A    between atoms: _605  and  _607
REMARK  246  A    between atoms: _607  and  _608
REMARK  247  A    between atoms: _607  and  _610
REMARK  248  A    between atoms: _610  and  _611
REMARK  249  A    between atoms: _614  and  _616
REMARK  250  A    between atoms: _616  and  _617
REMARK  251  A    between atoms: _616  and  _619
REMARK  252  A    between atoms: _622  and  _624
REMARK  253  A    between atoms: _624  and  _625
REMARK  254  A    between atoms: _627  and  _629
REMARK  255  A    between atoms: _629  and  _630
REMARK  256  A    between atoms: _633  and  _635
REMARK  257  A    between atoms: _635  and  _636
REMARK  258  A    between atoms: _635  and  _638
REMARK                            x       y       z     vdW  Elec       q    Type
REMARK                         _______ _______ _______ _____ _____    ______ ____
ROOT
ATOM      1  O   HOH     1      28.483   9.431  12.575  0.00  0.00    +0.000 OA
ENDROOT
TORSDOF 0
REMARK  Name = ../refined-set-2016/3lpk/3lpk_pocket.pdb
REMARK  258 active torsions:
REMARK  status: ('A' for Active; 'I' for Inactive)
REMARK    1  A    between atoms: _1  and  _3
REMARK    2  A    between atoms: _3  and  _4
REMARK    3  A    between atoms: _3  and  _6
REMARK    4  A    between atoms: _6  and  _7
REMARK    5  A    between atoms: _7  and  _8
REMARK    6  A    between atoms: _8  and  _9
REMARK    7  A    between atoms: _9  and  _10
REMARK    8  A    between atoms: _14  and  _16
REMARK    9  A    between atoms: _16  and  _17
REMARK   10  A    between atoms: _16  and  _19
REMARK   11  A    between atoms: _19  and  _20
REMARK   12  A    between atoms: _22  and  _24
REMARK   13  A    between atoms: _24  and  _25
REMARK   14  A    between atoms: _27  and  _29
REMARK   15  A    between atoms: _29  and  _30
REMARK   16  A    between atoms: _29  and  _32
REMARK   17  A    between atoms: _32  and  _33
REMARK   18  A    between atoms: _33  and  _34
REMARK   19  A    between atoms: _39  and  _41
REMARK   20  A    between atoms: _41  and  _42
REMARK   21  A    between atoms: _44  and  _46
REMARK   22  A    between atoms: _46  and  _47
REMARK   23  A    between atoms: _46  and  _49
REMARK   24  A    between atoms: _49  and  _50
REMARK   25  A    between atoms: _55  and  _56
REMARK   26  A    between atoms: _58  and  _60
REMARK   27  A    between atoms: _60  and  _61
REMARK   28  A    between atoms: _60  and  _63
REMARK   29  A    between atoms: _63  and  _64
REMARK   30  A    between atoms: _67  and  _69
REMARK   31  A    between atoms: _69  and  _70
REMARK   32  A    between atoms: _69  and  _72
REMARK   33  A    between atoms: _75  and  _77
REMARK   34  A    between atoms: _77  and  _78
REMARK   35  A    between atoms: _77  and  _80
REMARK   36  A    between atoms: _80  and  _81
REMARK   37  A    between atoms: _84  and  _86
REMARK   38  A    between atoms: _86  and  _87
REMARK   39  A    between atoms: _86  and  _89
REMARK   40  A    between atoms: _89  and  _90
REMARK   41  A    between atoms: _93  and  _95
REMARK   42  A    between atoms: _95  and  _96
REMARK   43  A    between atoms: _98  and  _100
REMARK   44  A    between atoms: _100  and  _101
REMARK   45  A    between atoms: _100  and  _103
REMARK   46  A    between atoms: _103  and  _104
REMARK   47  A    between atoms: _106  and  _108
REMARK   48  A    between atoms: _108  and  _109
REMARK   49  A    between atoms: _108  and  _111
REMARK   50  A    between atoms: _111  and  _112
REMARK   51  A    between atoms: _114  and  _116
REMARK   52  A    between atoms: _116  and  _117
REMARK   53  A    between atoms: _116  and  _119
REMARK   54  A    between atoms: _119  and  _120
REMARK   55  A    between atoms: _125  and  _127
REMARK   56  A    between atoms: _127  and  _128
REMARK   57  A    between atoms: _127  and  _130
REMARK   58  A    between atoms: _130  and  _131
REMARK   59  A    between atoms: _136  and  _137
REMARK   60  A    between atoms: _139  and  _141
REMARK   61  A    between atoms: _141  and  _142
REMARK   62  A    between atoms: _141  and  _144
REMARK   63  A    between atoms: _148  and  _149
REMARK   64  A    between atoms: _154  and  _156
REMARK   65  A    between atoms: _156  and  _157
REMARK   66  A    between atoms: _156  and  _159
REMARK   67  A    between atoms: _159  and  _160
REMARK   68  A    between atoms: _165  and  _166
REMARK   69  A    between atoms: _168  and  _170
REMARK   70  A    between atoms: _170  and  _171
REMARK   71  A    between atoms: _170  and  _173
REMARK   72  A    between atoms: _173  and  _174
REMARK   73  A    between atoms: _177  and  _179
REMARK   74  A    between atoms: _179  and  _180
REMARK   75  A    between atoms: _179  and  _182
REMARK   76  A    between atoms: _182  and  _183
REMARK   77  A    between atoms: _183  and  _184
REMARK   78  A    between atoms: _189  and  _191
REMARK   79  A    between atoms: _191  and  _192
REMARK   80  A    between atoms: _194  and  _196
REMARK   81  A    between atoms: _196  and  _197
REMARK   82  A    between atoms: _196  and  _199
REMARK   83  A    between atoms: _199  and  _200
REMARK   84  A    between atoms: _200  and  _201
REMARK   85  A    between atoms: _201  and  _202
REMARK   86  A    between atoms: _202  and  _203
REMARK   87  A    between atoms: _207  and  _209
REMARK   88  A    between atoms: _209  and  _210
REMARK   89  A    between atoms: _209  and  _212
REMARK   90  A    between atoms: _212  and  _213
REMARK   91  A    between atoms: _223  and  _225
REMARK   92  A    between atoms: _225  and  _226
REMARK   93  A    between atoms: _225  and  _228
REMARK   94  A    between atoms: _228  and  _229
REMARK   95  A    between atoms: _232  and  _234
REMARK   96  A    between atoms: _234  and  _235
REMARK   97  A    between atoms: _234  and  _237
REMARK   98  A    between atoms: _237  and  _238
REMARK   99  A    between atoms: _238  and  _239
REMARK  100  A    between atoms: _239  and  _240
REMARK  101  A    between atoms: _240  and  _241
REMARK  102  A    between atoms: _245  and  _247
REMARK  103  A    between atoms: _247  and  _248
REMARK  104  A    between atoms: _247  and  _250
REMARK  105  A    between atoms: _250  and  _251
REMARK  106  A    between atoms: _257  and  _259
REMARK  107  A    between atoms: _259  and  _260
REMARK  108  A    between atoms: _259  and  _262
REMARK  109  A    between atoms: _262  and  _263
REMARK  110  A    between atoms: _269  and  _271
REMARK  111  A    between atoms: _271  and  _272
REMARK  112  A    between atoms: _271  and  _274
REMARK  113  A    between atoms: _274  and  _275
REMARK  114  A    between atoms: _278  and  _280
REMARK  115  A    between atoms: _280  and  _281
REMARK  116  A    between atoms: _280  and  _283
REMARK  117  A    between atoms: _283  and  _284
REMARK  118  A    between atoms: _286  and  _288
REMARK  119  A    between atoms: _288  and  _289
REMARK  120  A    between atoms: _288  and  _291
REMARK  121  A    between atoms: _291  and  _292
REMARK  122  A    between atoms: _302  and  _304
REMARK  123  A    between atoms: _304  and  _305
REMARK  124  A    between atoms: _307  and  _309
REMARK  125  A    between atoms: _309  and  _310
REMARK  126  A    between atoms: _309  and  _312
REMARK  127  A    between atoms: _312  and  _313
REMARK  128  A    between atoms: _316  and  _318
REMARK  129  A    between atoms: _318  and  _319
REMARK  130  A    between atoms: _318  and  _321
REMARK  131  A    between atoms: _321  and  _322
REMARK  132  A    between atoms: _325  and  _327
REMARK  133  A    between atoms: _327  and  _328
REMARK  134  A    between atoms: _330  and  _332
REMARK  135  A    between atoms: _332  and  _333
REMARK  136  A    between atoms: _332  and  _335
REMARK  137  A    between atoms: _335  and  _336
REMARK  138  A    between atoms: _339  and  _341
REMARK  139  A    between atoms: _341  and  _342
REMARK  140  A    between atoms: _345  and  _347
REMARK  141  A    between atoms: _347  and  _348
REMARK  142  A    between atoms: _347  and  _350
REMARK  143  A    between atoms: _350  and  _351
REMARK  144  A    between atoms: _356  and  _357
REMARK  145  A    between atoms: _359  and  _361
REMARK  146  A    between atoms: _361  and  _362
REMARK  147  A    between atoms: _361  and  _364
REMARK  148  A    between atoms: _364  and  _365
REMARK  149  A    between atoms: _365  and  _366
REMARK  150  A    between atoms: _369  and  _371
REMARK  151  A    between atoms: _371  and  _372
REMARK  152  A    between atoms: _371  and  _374
REMARK  153  A    between atoms: _374  and  _375
REMARK  154  A    between atoms: _378  and  _380
REMARK  155  A    between atoms: _380  and  _381
REMARK  156  A    between atoms: _384  and  _386
REMARK  157  A    between atoms: _386  and  _387
REMARK  158  A    between atoms: _386  and  _389
REMARK  159  A    between atoms: _389  and  _390
REMARK  160  A    between atoms: _390  and  _391
REMARK  161  A    between atoms: _391  and  _392
REMARK  162  A    between atoms: _401  and  _403
REMARK  163  A    between atoms: _403  and  _404
REMARK  164  A    between atoms: _403  and  _406
REMARK  165  A    between atoms: _406  and  _407
REMARK  166  A    between atoms: _417  and  _419
REMARK  167  A    between atoms: _419  and  _420
REMARK  168  A    between atoms: _419  and  _422
REMARK  169  A    between atoms: _422  and  _423
REMARK  170  A    between atoms: _428  and  _429
REMARK  171  A    between atoms: _431  and  _433
REMARK  172  A    between atoms: _433  and  _434
REMARK  173  A    between atoms: _433  and  _436
REMARK  174  A    between atoms: _436  and  _437
REMARK  175  A    between atoms: _442  and  _443
REMARK  176  A    between atoms: _445  and  _447
REMARK  177  A    between atoms: _447  and  _448
REMARK  178  A    between atoms: _447  and  _450
REMARK  179  A    between atoms: _450  and  _451
REMARK  180  A    between atoms: _451  and  _452
REMARK  181  A    between atoms: _452  and  _453
REMARK  182  A    between atoms: _453  and  _454
REMARK  183  A    between atoms: _458  and  _460
REMARK  184  A    between atoms: _460  and  _461
REMARK  185  A    between atoms: _460  and  _463
REMARK  186  A    between atoms: _463  and  _464
REMARK  187  A    between atoms: _467  and  _469
REMARK  188  A    between atoms: _469  and  _470
REMARK  189  A    between atoms: _469  and  _472
REMARK  190  A    between atoms: _475  and  _477
REMARK  191  A    between atoms: _477  and  _478
REMARK  192  A    between atoms: _477  and  _480
REMARK  193  A    between atoms: _480  and  _481
REMARK  194  A    between atoms: _484  and  _486
REMARK  195  A    between atoms: _486  and  _487
REMARK  196  A    between atoms: _486  and  _489
REMARK  197  A    between atoms: _489  and  _490
REMARK  198  A    between atoms: _492  and  _494
REMARK  199  A    between atoms: _494  and  _495
REMARK  200  A    between atoms: _497  and  _499
REMARK  201  A    between atoms: _499  and  _500
REMARK  202  A    between atoms: _499  and  _502
REMARK  203  A    between atoms: _502  and  _503
REMARK  204  A    between atoms: _506  and  _508
REMARK  205  A    between atoms: _508  and  _509
REMARK  206  A    between atoms: _508  and  _511
REMARK  207  A    between atoms: _511  and  _512
REMARK  208  A    between atoms: _515  and  _517
REMARK  209  A    between atoms: _517  and  _518
REMARK  210  A    between atoms: _517  and  _520
REMARK  211  A    between atoms: _520  and  _521
REMARK  212  A    between atoms: _526  and  _528
REMARK  213  A    between atoms: _528  and  _529
REMARK  214  A    between atoms: _528  and  _531
REMARK  215  A    between atoms: _531  and  _532
REMARK  216  A    between atoms: _532  and  _533
REMARK  217  A    between atoms: _533  and  _534
REMARK  218  A    between atoms: _543  and  _545
REMARK  219  A    between atoms: _545  and  _546
REMARK  220  A    between atoms: _545  and  _548
REMARK  221  A    between atoms: _548  and  _549
REMARK  222  A    between atoms: _549  and  _550
REMARK  223  A    between atoms: _550  and  _551
REMARK  224  A    between atoms: _560  and  _562
REMARK  225  A    between atoms: _562  and  _563
REMARK  226  A    between atoms: _562  and  _565
REMARK  227  A    between atoms: _565  and  _566
REMARK  228  A    between atoms: _568  and  _570
REMARK  229  A    between atoms: _570  and  _571
REMARK  230  A    between atoms: _570  and  _573
REMARK  231  A    between atoms: _573  and  _574
REMARK  232  A    between atoms: _574  and  _575
REMARK  233  A    between atoms: _580  and  _582
REMARK  234  A    between atoms: _582  and  _583
REMARK  235  A    between atoms: _582  and  _585
REMARK  236  A    between atoms: _585  and  _586
REMARK  237  A    between atoms: _588  and  _590
REMARK  238  A    between atoms: _590  and  _591
REMARK  239  A    between atoms: _590  and  _593
REMARK  240  A    between atoms: _593  and  _594
REMARK  241  A    between atoms: _596  and  _598
REMARK  242  A    between atoms: _598  and  _599
REMARK  243  A    between atoms: _598  and  _601
REMARK  244  A    between atoms: _601  and  _602
REMARK  245  A    between atoms: _605  and  _607
REMARK  246  A    between atoms: _607  and  _608
REMARK  247  A    between atoms: _607  and  _610
REMARK  248  A    between atoms: _610  and  _611
REMARK  249  A    between atoms: _614  and  _616
REMARK  250  A    between atoms: _616  and  _617
REMARK  251  A    between atoms: _616  and  _619
REMARK  252  A    between atoms: _622  and  _624
REMARK  253  A    between atoms: _624  and  _625
REMARK  254  A    between atoms: _627  and  _629
REMARK  255  A    between atoms: _629  and  _630
REMARK  256  A    between atoms: _633  and  _635
REMARK  257  A    between atoms: _635  and  _636
REMARK  258  A    between atoms: _635  and  _638
REMARK                            x       y       z     vdW  Elec       q    Type
REMARK                         _______ _______ _______ _____ _____    ______ ____
ROOT
ATOM      1  O   HOH     1      20.365  12.170  33.121  0.00  0.00    +0.000 OA
ENDROOT
TORSDOF 0
REMARK  Name = ../refined-set-2016/3lpk/3lpk_pocket.pdb
REMARK  258 active torsions:
REMARK  status: ('A' for Active; 'I' for Inactive)
REMARK    1  A    between atoms: _1  and  _3
REMARK    2  A    between atoms: _3  and  _4
REMARK    3  A    between atoms: _3  and  _6
REMARK    4  A    between atoms: _6  and  _7
REMARK    5  A    between atoms: _7  and  _8
REMARK    6  A    between atoms: _8  and  _9
REMARK    7  A    between atoms: _9  and  _10
REMARK    8  A    between atoms: _14  and  _16
REMARK    9  A    between atoms: _16  and  _17
REMARK   10  A    between atoms: _16  and  _19
REMARK   11  A    between atoms: _19  and  _20
REMARK   12  A    between atoms: _22  and  _24
REMARK   13  A    between atoms: _24  and  _25
REMARK   14  A    between atoms: _27  and  _29
REMARK   15  A    between atoms: _29  and  _30
REMARK   16  A    between atoms: _29  and  _32
REMARK   17  A    between atoms: _32  and  _33
REMARK   18  A    between atoms: _33  and  _34
REMARK   19  A    between atoms: _39  and  _41
REMARK   20  A    between atoms: _41  and  _42
REMARK   21  A    between atoms: _44  and  _46
REMARK   22  A    between atoms: _46  and  _47
REMARK   23  A    between atoms: _46  and  _49
REMARK   24  A    between atoms: _49  and  _50
REMARK   25  A    between atoms: _55  and  _56
REMARK   26  A    between atoms: _58  and  _60
REMARK   27  A    between atoms: _60  and  _61
REMARK   28  A    between atoms: _60  and  _63
REMARK   29  A    between atoms: _63  and  _64
REMARK   30  A    between atoms: _67  and  _69
REMARK   31  A    between atoms: _69  and  _70
REMARK   32  A    between atoms: _69  and  _72
REMARK   33  A    between atoms: _75  and  _77
REMARK   34  A    between atoms: _77  and  _78
REMARK   35  A    between atoms: _77  and  _80
REMARK   36  A    between atoms: _80  and  _81
REMARK   37  A    between atoms: _84  and  _86
REMARK   38  A    between atoms: _86  and  _87
REMARK   39  A    between atoms: _86  and  _89
REMARK   40  A    between atoms: _89  and  _90
REMARK   41  A    between atoms: _93  and  _95
REMARK   42  A    between atoms: _95  and  _96
REMARK   43  A    between atoms: _98  and  _100
REMARK   44  A    between atoms: _100  and  _101
REMARK   45  A    between atoms: _100  and  _103
REMARK   46  A    between atoms: _103  and  _104
REMARK   47  A    between atoms: _106  and  _108
REMARK   48  A    between atoms: _108  and  _109
REMARK   49  A    between atoms: _108  and  _111
REMARK   50  A    between atoms: _111  and  _112
REMARK   51  A    between atoms: _114  and  _116
REMARK   52  A    between atoms: _116  and  _117
REMARK   53  A    between atoms: _116  and  _119
REMARK   54  A    between atoms: _119  and  _120
REMARK   55  A    between atoms: _125  and  _127
REMARK   56  A    between atoms: _127  and  _128
REMARK   57  A    between atoms: _127  and  _130
REMARK   58  A    between atoms: _130  and  _131
REMARK   59  A    between atoms: _136  and  _137
REMARK   60  A    between atoms: _139  and  _141
REMARK   61  A    between atoms: _141  and  _142
REMARK   62  A    between atoms: _141  and  _144
REMARK   63  A    between atoms: _148  and  _149
REMARK   64  A    between atoms: _154  and  _156
REMARK   65  A    between atoms: _156  and  _157
REMARK   66  A    between atoms: _156  and  _159
REMARK   67  A    between atoms: _159  and  _160
REMARK   68  A    between atoms: _165  and  _166
REMARK   69  A    between atoms: _168  and  _170
REMARK   70  A    between atoms: _170  and  _171
REMARK   71  A    between atoms: _170  and  _173
REMARK   72  A    between atoms: _173  and  _174
REMARK   73  A    between atoms: _177  and  _179
REMARK   74  A    between atoms: _179  and  _180
REMARK   75  A    between atoms: _179  and  _182
REMARK   76  A    between atoms: _182  and  _183
REMARK   77  A    between atoms: _183  and  _184
REMARK   78  A    between atoms: _189  and  _191
REMARK   79  A    between atoms: _191  and  _192
REMARK   80  A    between atoms: _194  and  _196
REMARK   81  A    between atoms: _196  and  _197
REMARK   82  A    between atoms: _196  and  _199
REMARK   83  A    between atoms: _199  and  _200
REMARK   84  A    between atoms: _200  and  _201
REMARK   85  A    between atoms: _201  and  _202
REMARK   86  A    between atoms: _202  and  _203
REMARK   87  A    between atoms: _207  and  _209
REMARK   88  A    between atoms: _209  and  _210
REMARK   89  A    between atoms: _209  and  _212
REMARK   90  A    between atoms: _212  and  _213
REMARK   91  A    between atoms: _223  and  _225
REMARK   92  A    between atoms: _225  and  _226
REMARK   93  A    between atoms: _225  and  _228
REMARK   94  A    between atoms: _228  and  _229
REMARK   95  A    between atoms: _232  and  _234
REMARK   96  A    between atoms: _234  and  _235
REMARK   97  A    between atoms: _234  and  _237
REMARK   98  A    between atoms: _237  and  _238
REMARK   99  A    between atoms: _238  and  _239
REMARK  100  A    between atoms: _239  and  _240
REMARK  101  A    between atoms: _240  and  _241
REMARK  102  A    between atoms: _245  and  _247
REMARK  103  A    between atoms: _247  and  _248
REMARK  104  A    between atoms: _247  and  _250
REMARK  105  A    between atoms: _250  and  _251
REMARK  106  A    between atoms: _257  and  _259
REMARK  107  A    between atoms: _259  and  _260
REMARK  108  A    between atoms: _259  and  _262
REMARK  109  A    between atoms: _262  and  _263
REMARK  110  A    between atoms: _269  and  _271
REMARK  111  A    between atoms: _271  and  _272
REMARK  112  A    between atoms: _271  and  _274
REMARK  113  A    between atoms: _274  and  _275
REMARK  114  A    between atoms: _278  and  _280
REMARK  115  A    between atoms: _280  and  _281
REMARK  116  A    between atoms: _280  and  _283
REMARK  117  A    between atoms: _283  and  _284
REMARK  118  A    between atoms: _286  and  _288
REMARK  119  A    between atoms: _288  and  _289
REMARK  120  A    between atoms: _288  and  _291
REMARK  121  A    between atoms: _291  and  _292
REMARK  122  A    between atoms: _302  and  _304
REMARK  123  A    between atoms: _304  and  _305
REMARK  124  A    between atoms: _307  and  _309
REMARK  125  A    between atoms: _309  and  _310
REMARK  126  A    between atoms: _309  and  _312
REMARK  127  A    between atoms: _312  and  _313
REMARK  128  A    between atoms: _316  and  _318
REMARK  129  A    between atoms: _318  and  _319
REMARK  130  A    between atoms: _318  and  _321
REMARK  131  A    between atoms: _321  and  _322
REMARK  132  A    between atoms: _325  and  _327
REMARK  133  A    between atoms: _327  and  _328
REMARK  134  A    between atoms: _330  and  _332
REMARK  135  A    between atoms: _332  and  _333
REMARK  136  A    between atoms: _332  and  _335
REMARK  137  A    between atoms: _335  and  _336
REMARK  138  A    between atoms: _339  and  _341
REMARK  139  A    between atoms: _341  and  _342
REMARK  140  A    between atoms: _345  and  _347
REMARK  141  A    between atoms: _347  and  _348
REMARK  142  A    between atoms: _347  and  _350
REMARK  143  A    between atoms: _350  and  _351
REMARK  144  A    between atoms: _356  and  _357
REMARK  145  A    between atoms: _359  and  _361
REMARK  146  A    between atoms: _361  and  _362
REMARK  147  A    between atoms: _361  and  _364
REMARK  148  A    between atoms: _364  and  _365
REMARK  149  A    between atoms: _365  and  _366
REMARK  150  A    between atoms: _369  and  _371
REMARK  151  A    between atoms: _371  and  _372
REMARK  152  A    between atoms: _371  and  _374
REMARK  153  A    between atoms: _374  and  _375
REMARK  154  A    between atoms: _378  and  _380
REMARK  155  A    between atoms: _380  and  _381
REMARK  156  A    between atoms: _384  and  _386
REMARK  157  A    between atoms: _386  and  _387
REMARK  158  A    between atoms: _386  and  _389
REMARK  159  A    between atoms: _389  and  _390
REMARK  160  A    between atoms: _390  and  _391
REMARK  161  A    between atoms: _391  and  _392
REMARK  162  A    between atoms: _401  and  _403
REMARK  163  A    between atoms: _403  and  _404
REMARK  164  A    between atoms: _403  and  _406
REMARK  165  A    between atoms: _406  and  _407
REMARK  166  A    between atoms: _417  and  _419
REMARK  167  A    between atoms: _419  and  _420
REMARK  168  A    between atoms: _419  and  _422
REMARK  169  A    between atoms: _422  and  _423
REMARK  170  A    between atoms: _428  and  _429
REMARK  171  A    between atoms: _431  and  _433
REMARK  172  A    between atoms: _433  and  _434
REMARK  173  A    between atoms: _433  and  _436
REMARK  174  A    between atoms: _436  and  _437
REMARK  175  A    between atoms: _442  and  _443
REMARK  176  A    between atoms: _445  and  _447
REMARK  177  A    between atoms: _447  and  _448
REMARK  178  A    between atoms: _447  and  _450
REMARK  179  A    between atoms: _450  and  _451
REMARK  180  A    between atoms: _451  and  _452
REMARK  181  A    between atoms: _452  and  _453
REMARK  182  A    between atoms: _453  and  _454
REMARK  183  A    between atoms: _458  and  _460
REMARK  184  A    between atoms: _460  and  _461
REMARK  185  A    between atoms: _460  and  _463
REMARK  186  A    between atoms: _463  and  _464
REMARK  187  A    between atoms: _467  and  _469
REMARK  188  A    between atoms: _469  and  _470
REMARK  189  A    between atoms: _469  and  _472
REMARK  190  A    between atoms: _475  and  _477
REMARK  191  A    between atoms: _477  and  _478
REMARK  192  A    between atoms: _477  and  _480
REMARK  193  A    between atoms: _480  and  _481
REMARK  194  A    between atoms: _484  and  _486
REMARK  195  A    between atoms: _486  and  _487
REMARK  196  A    between atoms: _486  and  _489
REMARK  197  A    between atoms: _489  and  _490
REMARK  198  A    between atoms: _492  and  _494
REMARK  199  A    between atoms: _494  and  _495
REMARK  200  A    between atoms: _497  and  _499
REMARK  201  A    between atoms: _499  and  _500
REMARK  202  A    between atoms: _499  and  _502
REMARK  203  A    between atoms: _502  and  _503
REMARK  204  A    between atoms: _506  and  _508
REMARK  205  A    between atoms: _508  and  _509
REMARK  206  A    between atoms: _508  and  _511
REMARK  207  A    between atoms: _511  and  _512
REMARK  208  A    between atoms: _515  and  _517
REMARK  209  A    between atoms: _517  and  _518
REMARK  210  A    between atoms: _517  and  _520
REMARK  211  A    between atoms: _520  and  _521
REMARK  212  A    between atoms: _526  and  _528
REMARK  213  A    between atoms: _528  and  _529
REMARK  214  A    between atoms: _528  and  _531
REMARK  215  A    between atoms: _531  and  _532
REMARK  216  A    between atoms: _532  and  _533
REMARK  217  A    between atoms: _533  and  _534
REMARK  218  A    between atoms: _543  and  _545
REMARK  219  A    between atoms: _545  and  _546
REMARK  220  A    between atoms: _545  and  _548
REMARK  221  A    between atoms: _548  and  _549
REMARK  222  A    between atoms: _549  and  _550
REMARK  223  A    between atoms: _550  and  _551
REMARK  224  A    between atoms: _560  and  _562
REMARK  225  A    between atoms: _562  and  _563
REMARK  226  A    between atoms: _562  and  _565
REMARK  227  A    between atoms: _565  and  _566
REMARK  228  A    between atoms: _568  and  _570
REMARK  229  A    between atoms: _570  and  _571
REMARK  230  A    between atoms: _570  and  _573
REMARK  231  A    between atoms: _573  and  _574
REMARK  232  A    between atoms: _574  and  _575
REMARK  233  A    between atoms: _580  and  _582
REMARK  234  A    between atoms: _582  and  _583
REMARK  235  A    between atoms: _582  and  _585
REMARK  236  A    between atoms: _585  and  _586
REMARK  237  A    between atoms: _588  and  _590
REMARK  238  A    between atoms: _590  and  _591
REMARK  239  A    between atoms: _590  and  _593
REMARK  240  A    between atoms: _593  and  _594
REMARK  241  A    between atoms: _596  and  _598
REMARK  242  A    between atoms: _598  and  _599
REMARK  243  A    between atoms: _598  and  _601
REMARK  244  A    between atoms: _601  and  _602
REMARK  245  A    between atoms: _605  and  _607
REMARK  246  A    between atoms: _607  and  _608
REMARK  247  A    between atoms: _607  and  _610
REMARK  248  A    between atoms: _610  and  _611
REMARK  249  A    between atoms: _614  and  _616
REMARK  250  A    between atoms: _616  and  _617
REMARK  251  A    between atoms: _616  and  _619
REMARK  252  A    between atoms: _622  and  _624
REMARK  253  A    between atoms: _624  and  _625
REMARK  254  A    between atoms: _627  and  _629
REMARK  255  A    between atoms: _629  and  _630
REMARK  256  A    between atoms: _633  and  _635
REMARK  257  A    between atoms: _635  and  _636
REMARK  258  A    between atoms: _635  and  _638
REMARK                            x       y       z     vdW  Elec       q    Type
REMARK                         _______ _______ _______ _____ _____    ______ ____
ROOT
ATOM      1  O   HOH     1      33.848   6.753  16.709  0.00  0.00    +0.000 OA
ENDROOT
TORSDOF 0
REMARK  Name = ../refined-set-2016/3lpk/3lpk_pocket.pdb
REMARK  258 active torsions:
REMARK  status: ('A' for Active; 'I' for Inactive)
REMARK    1  A    between atoms: _1  and  _3
REMARK    2  A    between atoms: _3  and  _4
REMARK    3  A    between atoms: _3  and  _6
REMARK    4  A    between atoms: _6  and  _7
REMARK    5  A    between atoms: _7  and  _8
REMARK    6  A    between atoms: _8  and  _9
REMARK    7  A    between atoms: _9  and  _10
REMARK    8  A    between atoms: _14  and  _16
REMARK    9  A    between atoms: _16  and  _17
REMARK   10  A    between atoms: _16  and  _19
REMARK   11  A    between atoms: _19  and  _20
REMARK   12  A    between atoms: _22  and  _24
REMARK   13  A    between atoms: _24  and  _25
REMARK   14  A    between atoms: _27  and  _29
REMARK   15  A    between atoms: _29  and  _30
REMARK   16  A    between atoms: _29  and  _32
REMARK   17  A    between atoms: _32  and  _33
REMARK   18  A    between atoms: _33  and  _34
REMARK   19  A    between atoms: _39  and  _41
REMARK   20  A    between atoms: _41  and  _42
REMARK   21  A    between atoms: _44  and  _46
REMARK   22  A    between atoms: _46  and  _47
REMARK   23  A    between atoms: _46  and  _49
REMARK   24  A    between atoms: _49  and  _50
REMARK   25  A    between atoms: _55  and  _56
REMARK   26  A    between atoms: _58  and  _60
REMARK   27  A    between atoms: _60  and  _61
REMARK   28  A    between atoms: _60  and  _63
REMARK   29  A    between atoms: _63  and  _64
REMARK   30  A    between atoms: _67  and  _69
REMARK   31  A    between atoms: _69  and  _70
REMARK   32  A    between atoms: _69  and  _72
REMARK   33  A    between atoms: _75  and  _77
REMARK   34  A    between atoms: _77  and  _78
REMARK   35  A    between atoms: _77  and  _80
REMARK   36  A    between atoms: _80  and  _81
REMARK   37  A    between atoms: _84  and  _86
REMARK   38  A    between atoms: _86  and  _87
REMARK   39  A    between atoms: _86  and  _89
REMARK   40  A    between atoms: _89  and  _90
REMARK   41  A    between atoms: _93  and  _95
REMARK   42  A    between atoms: _95  and  _96
REMARK   43  A    between atoms: _98  and  _100
REMARK   44  A    between atoms: _100  and  _101
REMARK   45  A    between atoms: _100  and  _103
REMARK   46  A    between atoms: _103  and  _104
REMARK   47  A    between atoms: _106  and  _108
REMARK   48  A    between atoms: _108  and  _109
REMARK   49  A    between atoms: _108  and  _111
REMARK   50  A    between atoms: _111  and  _112
REMARK   51  A    between atoms: _114  and  _116
REMARK   52  A    between atoms: _116  and  _117
REMARK   53  A    between atoms: _116  and  _119
REMARK   54  A    between atoms: _119  and  _120
REMARK   55  A    between atoms: _125  and  _127
REMARK   56  A    between atoms: _127  and  _128
REMARK   57  A    between atoms: _127  and  _130
REMARK   58  A    between atoms: _130  and  _131
REMARK   59  A    between atoms: _136  and  _137
REMARK   60  A    between atoms: _139  and  _141
REMARK   61  A    between atoms: _141  and  _142
REMARK   62  A    between atoms: _141  and  _144
REMARK   63  A    between atoms: _148  and  _149
REMARK   64  A    between atoms: _154  and  _156
REMARK   65  A    between atoms: _156  and  _157
REMARK   66  A    between atoms: _156  and  _159
REMARK   67  A    between atoms: _159  and  _160
REMARK   68  A    between atoms: _165  and  _166
REMARK   69  A    between atoms: _168  and  _170
REMARK   70  A    between atoms: _170  and  _171
REMARK   71  A    between atoms: _170  and  _173
REMARK   72  A    between atoms: _173  and  _174
REMARK   73  A    between atoms: _177  and  _179
REMARK   74  A    between atoms: _179  and  _180
REMARK   75  A    between atoms: _179  and  _182
REMARK   76  A    between atoms: _182  and  _183
REMARK   77  A    between atoms: _183  and  _184
REMARK   78  A    between atoms: _189  and  _191
REMARK   79  A    between atoms: _191  and  _192
REMARK   80  A    between atoms: _194  and  _196
REMARK   81  A    between atoms: _196  and  _197
REMARK   82  A    between atoms: _196  and  _199
REMARK   83  A    between atoms: _199  and  _200
REMARK   84  A    between atoms: _200  and  _201
REMARK   85  A    between atoms: _201  and  _202
REMARK   86  A    between atoms: _202  and  _203
REMARK   87  A    between atoms: _207  and  _209
REMARK   88  A    between atoms: _209  and  _210
REMARK   89  A    between atoms: _209  and  _212
REMARK   90  A    between atoms: _212  and  _213
REMARK   91  A    between atoms: _223  and  _225
REMARK   92  A    between atoms: _225  and  _226
REMARK   93  A    between atoms: _225  and  _228
REMARK   94  A    between atoms: _228  and  _229
REMARK   95  A    between atoms: _232  and  _234
REMARK   96  A    between atoms: _234  and  _235
REMARK   97  A    between atoms: _234  and  _237
REMARK   98  A    between atoms: _237  and  _238
REMARK   99  A    between atoms: _238  and  _239
REMARK  100  A    between atoms: _239  and  _240
REMARK  101  A    between atoms: _240  and  _241
REMARK  102  A    between atoms: _245  and  _247
REMARK  103  A    between atoms: _247  and  _248
REMARK  104  A    between atoms: _247  and  _250
REMARK  105  A    between atoms: _250  and  _251
REMARK  106  A    between atoms: _257  and  _259
REMARK  107  A    between atoms: _259  and  _260
REMARK  108  A    between atoms: _259  and  _262
REMARK  109  A    between atoms: _262  and  _263
REMARK  110  A    between atoms: _269  and  _271
REMARK  111  A    between atoms: _271  and  _272
REMARK  112  A    between atoms: _271  and  _274
REMARK  113  A    between atoms: _274  and  _275
REMARK  114  A    between atoms: _278  and  _280
REMARK  115  A    between atoms: _280  and  _281
REMARK  116  A    between atoms: _280  and  _283
REMARK  117  A    between atoms: _283  and  _284
REMARK  118  A    between atoms: _286  and  _288
REMARK  119  A    between atoms: _288  and  _289
REMARK  120  A    between atoms: _288  and  _291
REMARK  121  A    between atoms: _291  and  _292
REMARK  122  A    between atoms: _302  and  _304
REMARK  123  A    between atoms: _304  and  _305
REMARK  124  A    between atoms: _307  and  _309
REMARK  125  A    between atoms: _309  and  _310
REMARK  126  A    between atoms: _309  and  _312
REMARK  127  A    between atoms: _312  and  _313
REMARK  128  A    between atoms: _316  and  _318
REMARK  129  A    between atoms: _318  and  _319
REMARK  130  A    between atoms: _318  and  _321
REMARK  131  A    between atoms: _321  and  _322
REMARK  132  A    between atoms: _325  and  _327
REMARK  133  A    between atoms: _327  and  _328
REMARK  134  A    between atoms: _330  and  _332
REMARK  135  A    between atoms: _332  and  _333
REMARK  136  A    between atoms: _332  and  _335
REMARK  137  A    between atoms: _335  and  _336
REMARK  138  A    between atoms: _339  and  _341
REMARK  139  A    between atoms: _341  and  _342
REMARK  140  A    between atoms: _345  and  _347
REMARK  141  A    between atoms: _347  and  _348
REMARK  142  A    between atoms: _347  and  _350
REMARK  143  A    between atoms: _350  and  _351
REMARK  144  A    between atoms: _356  and  _357
REMARK  145  A    between atoms: _359  and  _361
REMARK  146  A    between atoms: _361  and  _362
REMARK  147  A    between atoms: _361  and  _364
REMARK  148  A    between atoms: _364  and  _365
REMARK  149  A    between atoms: _365  and  _366
REMARK  150  A    between atoms: _369  and  _371
REMARK  151  A    between atoms: _371  and  _372
REMARK  152  A    between atoms: _371  and  _374
REMARK  153  A    between atoms: _374  and  _375
REMARK  154  A    between atoms: _378  and  _380
REMARK  155  A    between atoms: _380  and  _381
REMARK  156  A    between atoms: _384  and  _386
REMARK  157  A    between atoms: _386  and  _387
REMARK  158  A    between atoms: _386  and  _389
REMARK  159  A    between atoms: _389  and  _390
REMARK  160  A    between atoms: _390  and  _391
REMARK  161  A    between atoms: _391  and  _392
REMARK  162  A    between atoms: _401  and  _403
REMARK  163  A    between atoms: _403  and  _404
REMARK  164  A    between atoms: _403  and  _406
REMARK  165  A    between atoms: _406  and  _407
REMARK  166  A    between atoms: _417  and  _419
REMARK  167  A    between atoms: _419  and  _420
REMARK  168  A    between atoms: _419  and  _422
REMARK  169  A    between atoms: _422  and  _423
REMARK  170  A    between atoms: _428  and  _429
REMARK  171  A    between atoms: _431  and  _433
REMARK  172  A    between atoms: _433  and  _434
REMARK  173  A    between atoms: _433  and  _436
REMARK  174  A    between atoms: _436  and  _437
REMARK  175  A    between atoms: _442  and  _443
REMARK  176  A    between atoms: _445  and  _447
REMARK  177  A    between atoms: _447  and  _448
REMARK  178  A    between atoms: _447  and  _450
REMARK  179  A    between atoms: _450  and  _451
REMARK  180  A    between atoms: _451  and  _452
REMARK  181  A    between atoms: _452  and  _453
REMARK  182  A    between atoms: _453  and  _454
REMARK  183  A    between atoms: _458  and  _460
REMARK  184  A    between atoms: _460  and  _461
REMARK  185  A    between atoms: _460  and  _463
REMARK  186  A    between atoms: _463  and  _464
REMARK  187  A    between atoms: _467  and  _469
REMARK  188  A    between atoms: _469  and  _470
REMARK  189  A    between atoms: _469  and  _472
REMARK  190  A    between atoms: _475  and  _477
REMARK  191  A    between atoms: _477  and  _478
REMARK  192  A    between atoms: _477  and  _480
REMARK  193  A    between atoms: _480  and  _481
REMARK  194  A    between atoms: _484  and  _486
REMARK  195  A    between atoms: _486  and  _487
REMARK  196  A    between atoms: _486  and  _489
REMARK  197  A    between atoms: _489  and  _490
REMARK  198  A    between atoms: _492  and  _494
REMARK  199  A    between atoms: _494  and  _495
REMARK  200  A    between atoms: _497  and  _499
REMARK  201  A    between atoms: _499  and  _500
REMARK  202  A    between atoms: _499  and  _502
REMARK  203  A    between atoms: _502  and  _503
REMARK  204  A    between atoms: _506  and  _508
REMARK  205  A    between atoms: _508  and  _509
REMARK  206  A    between atoms: _508  and  _511
REMARK  207  A    between atoms: _511  and  _512
REMARK  208  A    between atoms: _515  and  _517
REMARK  209  A    between atoms: _517  and  _518
REMARK  210  A    between atoms: _517  and  _520
REMARK  211  A    between atoms: _520  and  _521
REMARK  212  A    between atoms: _526  and  _528
REMARK  213  A    between atoms: _528  and  _529
REMARK  214  A    between atoms: _528  and  _531
REMARK  215  A    between atoms: _531  and  _532
REMARK  216  A    between atoms: _532  and  _533
REMARK  217  A    between atoms: _533  and  _534
REMARK  218  A    between atoms: _543  and  _545
REMARK  219  A    between atoms: _545  and  _546
REMARK  220  A    between atoms: _545  and  _548
REMARK  221  A    between atoms: _548  and  _549
REMARK  222  A    between atoms: _549  and  _550
REMARK  223  A    between atoms: _550  and  _551
REMARK  224  A    between atoms: _560  and  _562
REMARK  225  A    between atoms: _562  and  _563
REMARK  226  A    between atoms: _562  and  _565
REMARK  227  A    between atoms: _565  and  _566
REMARK  228  A    between atoms: _568  and  _570
REMARK  229  A    between atoms: _570  and  _571
REMARK  230  A    between atoms: _570  and  _573
REMARK  231  A    between atoms: _573  and  _574
REMARK  232  A    between atoms: _574  and  _575
REMARK  233  A    between atoms: _580  and  _582
REMARK  234  A    between atoms: _582  and  _583
REMARK  235  A    between atoms: _582  and  _585
REMARK  236  A    between atoms: _585  and  _586
REMARK  237  A    between atoms: _588  and  _590
REMARK  238  A    between atoms: _590  and  _591
REMARK  239  A    between atoms: _590  and  _593
REMARK  240  A    between atoms: _593  and  _594
REMARK  241  A    between atoms: _596  and  _598
REMARK  242  A    between atoms: _598  and  _599
REMARK  243  A    between atoms: _598  and  _601
REMARK  244  A    between atoms: _601  and  _602
REMARK  245  A    between atoms: _605  and  _607
REMARK  246  A    between atoms: _607  and  _608
REMARK  247  A    between atoms: _607  and  _610
REMARK  248  A    between atoms: _610  and  _611
REMARK  249  A    between atoms: _614  and  _616
REMARK  250  A    between atoms: _616  and  _617
REMARK  251  A    between atoms: _616  and  _619
REMARK  252  A    between atoms: _622  and  _624
REMARK  253  A    between atoms: _624  and  _625
REMARK  254  A    between atoms: _627  and  _629
REMARK  255  A    between atoms: _629  and  _630
REMARK  256  A    between atoms: _633  and  _635
REMARK  257  A    between atoms: _635  and  _636
REMARK  258  A    between atoms: _635  and  _638
REMARK                            x       y       z     vdW  Elec       q    Type
REMARK                         _______ _______ _______ _____ _____    ______ ____
ROOT
ATOM      1  O   HOH     1      23.492  14.654  10.952  0.00  0.00    +0.000 OA
ENDROOT
TORSDOF 0
REMARK  Name = ../refined-set-2016/3lpk/3lpk_pocket.pdb
REMARK  258 active torsions:
REMARK  status: ('A' for Active; 'I' for Inactive)
REMARK    1  A    between atoms: _1  and  _3
REMARK    2  A    between atoms: _3  and  _4
REMARK    3  A    between atoms: _3  and  _6
REMARK    4  A    between atoms: _6  and  _7
REMARK    5  A    between atoms: _7  and  _8
REMARK    6  A    between atoms: _8  and  _9
REMARK    7  A    between atoms: _9  and  _10
REMARK    8  A    between atoms: _14  and  _16
REMARK    9  A    between atoms: _16  and  _17
REMARK   10  A    between atoms: _16  and  _19
REMARK   11  A    between atoms: _19  and  _20
REMARK   12  A    between atoms: _22  and  _24
REMARK   13  A    between atoms: _24  and  _25
REMARK   14  A    between atoms: _27  and  _29
REMARK   15  A    between atoms: _29  and  _30
REMARK   16  A    between atoms: _29  and  _32
REMARK   17  A    between atoms: _32  and  _33
REMARK   18  A    between atoms: _33  and  _34
REMARK   19  A    between atoms: _39  and  _41
REMARK   20  A    between atoms: _41  and  _42
REMARK   21  A    between atoms: _44  and  _46
REMARK   22  A    between atoms: _46  and  _47
REMARK   23  A    between atoms: _46  and  _49
REMARK   24  A    between atoms: _49  and  _50
REMARK   25  A    between atoms: _55  and  _56
REMARK   26  A    between atoms: _58  and  _60
REMARK   27  A    between atoms: _60  and  _61
REMARK   28  A    between atoms: _60  and  _63
REMARK   29  A    between atoms: _63  and  _64
REMARK   30  A    between atoms: _67  and  _69
REMARK   31  A    between atoms: _69  and  _70
REMARK   32  A    between atoms: _69  and  _72
REMARK   33  A    between atoms: _75  and  _77
REMARK   34  A    between atoms: _77  and  _78
REMARK   35  A    between atoms: _77  and  _80
REMARK   36  A    between atoms: _80  and  _81
REMARK   37  A    between atoms: _84  and  _86
REMARK   38  A    between atoms: _86  and  _87
REMARK   39  A    between atoms: _86  and  _89
REMARK   40  A    between atoms: _89  and  _90
REMARK   41  A    between atoms: _93  and  _95
REMARK   42  A    between atoms: _95  and  _96
REMARK   43  A    between atoms: _98  and  _100
REMARK   44  A    between atoms: _100  and  _101
REMARK   45  A    between atoms: _100  and  _103
REMARK   46  A    between atoms: _103  and  _104
REMARK   47  A    between atoms: _106  and  _108
REMARK   48  A    between atoms: _108  and  _109
REMARK   49  A    between atoms: _108  and  _111
REMARK   50  A    between atoms: _111  and  _112
REMARK   51  A    between atoms: _114  and  _116
REMARK   52  A    between atoms: _116  and  _117
REMARK   53  A    between atoms: _116  and  _119
REMARK   54  A    between atoms: _119  and  _120
REMARK   55  A    between atoms: _125  and  _127
REMARK   56  A    between atoms: _127  and  _128
REMARK   57  A    between atoms: _127  and  _130
REMARK   58  A    between atoms: _130  and  _131
REMARK   59  A    between atoms: _136  and  _137
REMARK   60  A    between atoms: _139  and  _141
REMARK   61  A    between atoms: _141  and  _142
REMARK   62  A    between atoms: _141  and  _144
REMARK   63  A    between atoms: _148  and  _149
REMARK   64  A    between atoms: _154  and  _156
REMARK   65  A    between atoms: _156  and  _157
REMARK   66  A    between atoms: _156  and  _159
REMARK   67  A    between atoms: _159  and  _160
REMARK   68  A    between atoms: _165  and  _166
REMARK   69  A    between atoms: _168  and  _170
REMARK   70  A    between atoms: _170  and  _171
REMARK   71  A    between atoms: _170  and  _173
REMARK   72  A    between atoms: _173  and  _174
REMARK   73  A    between atoms: _177  and  _179
REMARK   74  A    between atoms: _179  and  _180
REMARK   75  A    between atoms: _179  and  _182
REMARK   76  A    between atoms: _182  and  _183
REMARK   77  A    between atoms: _183  and  _184
REMARK   78  A    between atoms: _189  and  _191
REMARK   79  A    between atoms: _191  and  _192
REMARK   80  A    between atoms: _194  and  _196
REMARK   81  A    between atoms: _196  and  _197
REMARK   82  A    between atoms: _196  and  _199
REMARK   83  A    between atoms: _199  and  _200
REMARK   84  A    between atoms: _200  and  _201
REMARK   85  A    between atoms: _201  and  _202
REMARK   86  A    between atoms: _202  and  _203
REMARK   87  A    between atoms: _207  and  _209
REMARK   88  A    between atoms: _209  and  _210
REMARK   89  A    between atoms: _209  and  _212
REMARK   90  A    between atoms: _212  and  _213
REMARK   91  A    between atoms: _223  and  _225
REMARK   92  A    between atoms: _225  and  _226
REMARK   93  A    between atoms: _225  and  _228
REMARK   94  A    between atoms: _228  and  _229
REMARK   95  A    between atoms: _232  and  _234
REMARK   96  A    between atoms: _234  and  _235
REMARK   97  A    between atoms: _234  and  _237
REMARK   98  A    between atoms: _237  and  _238
REMARK   99  A    between atoms: _238  and  _239
REMARK  100  A    between atoms: _239  and  _240
REMARK  101  A    between atoms: _240  and  _241
REMARK  102  A    between atoms: _245  and  _247
REMARK  103  A    between atoms: _247  and  _248
REMARK  104  A    between atoms: _247  and  _250
REMARK  105  A    between atoms: _250  and  _251
REMARK  106  A    between atoms: _257  and  _259
REMARK  107  A    between atoms: _259  and  _260
REMARK  108  A    between atoms: _259  and  _262
REMARK  109  A    between atoms: _262  and  _263
REMARK  110  A    between atoms: _269  and  _271
REMARK  111  A    between atoms: _271  and  _272
REMARK  112  A    between atoms: _271  and  _274
REMARK  113  A    between atoms: _274  and  _275
REMARK  114  A    between atoms: _278  and  _280
REMARK  115  A    between atoms: _280  and  _281
REMARK  116  A    between atoms: _280  and  _283
REMARK  117  A    between atoms: _283  and  _284
REMARK  118  A    between atoms: _286  and  _288
REMARK  119  A    between atoms: _288  and  _289
REMARK  120  A    between atoms: _288  and  _291
REMARK  121  A    between atoms: _291  and  _292
REMARK  122  A    between atoms: _302  and  _304
REMARK  123  A    between atoms: _304  and  _305
REMARK  124  A    between atoms: _307  and  _309
REMARK  125  A    between atoms: _309  and  _310
REMARK  126  A    between atoms: _309  and  _312
REMARK  127  A    between atoms: _312  and  _313
REMARK  128  A    between atoms: _316  and  _318
REMARK  129  A    between atoms: _318  and  _319
REMARK  130  A    between atoms: _318  and  _321
REMARK  131  A    between atoms: _321  and  _322
REMARK  132  A    between atoms: _325  and  _327
REMARK  133  A    between atoms: _327  and  _328
REMARK  134  A    between atoms: _330  and  _332
REMARK  135  A    between atoms: _332  and  _333
REMARK  136  A    between atoms: _332  and  _335
REMARK  137  A    between atoms: _335  and  _336
REMARK  138  A    between atoms: _339  and  _341
REMARK  139  A    between atoms: _341  and  _342
REMARK  140  A    between atoms: _345  and  _347
REMARK  141  A    between atoms: _347  and  _348
REMARK  142  A    between atoms: _347  and  _350
REMARK  143  A    between atoms: _350  and  _351
REMARK  144  A    between atoms: _356  and  _357
REMARK  145  A    between atoms: _359  and  _361
REMARK  146  A    between atoms: _361  and  _362
REMARK  147  A    between atoms: _361  and  _364
REMARK  148  A    between atoms: _364  and  _365
REMARK  149  A    between atoms: _365  and  _366
REMARK  150  A    between atoms: _369  and  _371
REMARK  151  A    between atoms: _371  and  _372
REMARK  152  A    between atoms: _371  and  _374
REMARK  153  A    between atoms: _374  and  _375
REMARK  154  A    between atoms: _378  and  _380
REMARK  155  A    between atoms: _380  and  _381
REMARK  156  A    between atoms: _384  and  _386
REMARK  157  A    between atoms: _386  and  _387
REMARK  158  A    between atoms: _386  and  _389
REMARK  159  A    between atoms: _389  and  _390
REMARK  160  A    between atoms: _390  and  _391
REMARK  161  A    between atoms: _391  and  _392
REMARK  162  A    between atoms: _401  and  _403
REMARK  163  A    between atoms: _403  and  _404
REMARK  164  A    between atoms: _403  and  _406
REMARK  165  A    between atoms: _406  and  _407
REMARK  166  A    between atoms: _417  and  _419
REMARK  167  A    between atoms: _419  and  _420
REMARK  168  A    between atoms: _419  and  _422
REMARK  169  A    between atoms: _422  and  _423
REMARK  170  A    between atoms: _428  and  _429
REMARK  171  A    between atoms: _431  and  _433
REMARK  172  A    between atoms: _433  and  _434
REMARK  173  A    between atoms: _433  and  _436
REMARK  174  A    between atoms: _436  and  _437
REMARK  175  A    between atoms: _442  and  _443
REMARK  176  A    between atoms: _445  and  _447
REMARK  177  A    between atoms: _447  and  _448
REMARK  178  A    between atoms: _447  and  _450
REMARK  179  A    between atoms: _450  and  _451
REMARK  180  A    between atoms: _451  and  _452
REMARK  181  A    between atoms: _452  and  _453
REMARK  182  A    between atoms: _453  and  _454
REMARK  183  A    between atoms: _458  and  _460
REMARK  184  A    between atoms: _460  and  _461
REMARK  185  A    between atoms: _460  and  _463
REMARK  186  A    between atoms: _463  and  _464
REMARK  187  A    between atoms: _467  and  _469
REMARK  188  A    between atoms: _469  and  _470
REMARK  189  A    between atoms: _469  and  _472
REMARK  190  A    between atoms: _475  and  _477
REMARK  191  A    between atoms: _477  and  _478
REMARK  192  A    between atoms: _477  and  _480
REMARK  193  A    between atoms: _480  and  _481
REMARK  194  A    between atoms: _484  and  _486
REMARK  195  A    between atoms: _486  and  _487
REMARK  196  A    between atoms: _486  and  _489
REMARK  197  A    between atoms: _489  and  _490
REMARK  198  A    between atoms: _492  and  _494
REMARK  199  A    between atoms: _494  and  _495
REMARK  200  A    between atoms: _497  and  _499
REMARK  201  A    between atoms: _499  and  _500
REMARK  202  A    between atoms: _499  and  _502
REMARK  203  A    between atoms: _502  and  _503
REMARK  204  A    between atoms: _506  and  _508
REMARK  205  A    between atoms: _508  and  _509
REMARK  206  A    between atoms: _508  and  _511
REMARK  207  A    between atoms: _511  and  _512
REMARK  208  A    between atoms: _515  and  _517
REMARK  209  A    between atoms: _517  and  _518
REMARK  210  A    between atoms: _517  and  _520
REMARK  211  A    between atoms: _520  and  _521
REMARK  212  A    between atoms: _526  and  _528
REMARK  213  A    between atoms: _528  and  _529
REMARK  214  A    between atoms: _528  and  _531
REMARK  215  A    between atoms: _531  and  _532
REMARK  216  A    between atoms: _532  and  _533
REMARK  217  A    between atoms: _533  and  _534
REMARK  218  A    between atoms: _543  and  _545
REMARK  219  A    between atoms: _545  and  _546
REMARK  220  A    between atoms: _545  and  _548
REMARK  221  A    between atoms: _548  and  _549
REMARK  222  A    between atoms: _549  and  _550
REMARK  223  A    between atoms: _550  and  _551
REMARK  224  A    between atoms: _560  and  _562
REMARK  225  A    between atoms: _562  and  _563
REMARK  226  A    between atoms: _562  and  _565
REMARK  227  A    between atoms: _565  and  _566
REMARK  228  A    between atoms: _568  and  _570
REMARK  229  A    between atoms: _570  and  _571
REMARK  230  A    between atoms: _570  and  _573
REMARK  231  A    between atoms: _573  and  _574
REMARK  232  A    between atoms: _574  and  _575
REMARK  233  A    between atoms: _580  and  _582
REMARK  234  A    between atoms: _582  and  _583
REMARK  235  A    between atoms: _582  and  _585
REMARK  236  A    between atoms: _585  and  _586
REMARK  237  A    between atoms: _588  and  _590
REMARK  238  A    between atoms: _590  and  _591
REMARK  239  A    between atoms: _590  and  _593
REMARK  240  A    between atoms: _593  and  _594
REMARK  241  A    between atoms: _596  and  _598
REMARK  242  A    between atoms: _598  and  _599
REMARK  243  A    between atoms: _598  and  _601
REMARK  244  A    between atoms: _601  and  _602
REMARK  245  A    between atoms: _605  and  _607
REMARK  246  A    between atoms: _607  and  _608
REMARK  247  A    between atoms: _607  and  _610
REMARK  248  A    between atoms: _610  and  _611
REMARK  249  A    between atoms: _614  and  _616
REMARK  250  A    between atoms: _616  and  _617
REMARK  251  A    between atoms: _616  and  _619
REMARK  252  A    between atoms: _622  and  _624
REMARK  253  A    between atoms: _624  and  _625
REMARK  254  A    between atoms: _627  and  _629
REMARK  255  A    between atoms: _629  and  _630
REMARK  256  A    between atoms: _633  and  _635
REMARK  257  A    between atoms: _635  and  _636
REMARK  258  A    between atoms: _635  and  _638
REMARK                            x       y       z     vdW  Elec       q    Type
REMARK                         _______ _______ _______ _____ _____    ______ ____
ROOT
ATOM      1  O   HOH     1      28.874  17.631  27.217  0.00  0.00    +0.000 OA
ENDROOT
TORSDOF 0
REMARK  Name = ../refined-set-2016/3lpk/3lpk_pocket.pdb
REMARK  258 active torsions:
REMARK  status: ('A' for Active; 'I' for Inactive)
REMARK    1  A    between atoms: _1  and  _3
REMARK    2  A    between atoms: _3  and  _4
REMARK    3  A    between atoms: _3  and  _6
REMARK    4  A    between atoms: _6  and  _7
REMARK    5  A    between atoms: _7  and  _8
REMARK    6  A    between atoms: _8  and  _9
REMARK    7  A    between atoms: _9  and  _10
REMARK    8  A    between atoms: _14  and  _16
REMARK    9  A    between atoms: _16  and  _17
REMARK   10  A    between atoms: _16  and  _19
REMARK   11  A    between atoms: _19  and  _20
REMARK   12  A    between atoms: _22  and  _24
REMARK   13  A    between atoms: _24  and  _25
REMARK   14  A    between atoms: _27  and  _29
REMARK   15  A    between atoms: _29  and  _30
REMARK   16  A    between atoms: _29  and  _32
REMARK   17  A    between atoms: _32  and  _33
REMARK   18  A    between atoms: _33  and  _34
REMARK   19  A    between atoms: _39  and  _41
REMARK   20  A    between atoms: _41  and  _42
REMARK   21  A    between atoms: _44  and  _46
REMARK   22  A    between atoms: _46  and  _47
REMARK   23  A    between atoms: _46  and  _49
REMARK   24  A    between atoms: _49  and  _50
REMARK   25  A    between atoms: _55  and  _56
REMARK   26  A    between atoms: _58  and  _60
REMARK   27  A    between atoms: _60  and  _61
REMARK   28  A    between atoms: _60  and  _63
REMARK   29  A    between atoms: _63  and  _64
REMARK   30  A    between atoms: _67  and  _69
REMARK   31  A    between atoms: _69  and  _70
REMARK   32  A    between atoms: _69  and  _72
REMARK   33  A    between atoms: _75  and  _77
REMARK   34  A    between atoms: _77  and  _78
REMARK   35  A    between atoms: _77  and  _80
REMARK   36  A    between atoms: _80  and  _81
REMARK   37  A    between atoms: _84  and  _86
REMARK   38  A    between atoms: _86  and  _87
REMARK   39  A    between atoms: _86  and  _89
REMARK   40  A    between atoms: _89  and  _90
REMARK   41  A    between atoms: _93  and  _95
REMARK   42  A    between atoms: _95  and  _96
REMARK   43  A    between atoms: _98  and  _100
REMARK   44  A    between atoms: _100  and  _101
REMARK   45  A    between atoms: _100  and  _103
REMARK   46  A    between atoms: _103  and  _104
REMARK   47  A    between atoms: _106  and  _108
REMARK   48  A    between atoms: _108  and  _109
REMARK   49  A    between atoms: _108  and  _111
REMARK   50  A    between atoms: _111  and  _112
REMARK   51  A    between atoms: _114  and  _116
REMARK   52  A    between atoms: _116  and  _117
REMARK   53  A    between atoms: _116  and  _119
REMARK   54  A    between atoms: _119  and  _120
REMARK   55  A    between atoms: _125  and  _127
REMARK   56  A    between atoms: _127  and  _128
REMARK   57  A    between atoms: _127  and  _130
REMARK   58  A    between atoms: _130  and  _131
REMARK   59  A    between atoms: _136  and  _137
REMARK   60  A    between atoms: _139  and  _141
REMARK   61  A    between atoms: _141  and  _142
REMARK   62  A    between atoms: _141  and  _144
REMARK   63  A    between atoms: _148  and  _149
REMARK   64  A    between atoms: _154  and  _156
REMARK   65  A    between atoms: _156  and  _157
REMARK   66  A    between atoms: _156  and  _159
REMARK   67  A    between atoms: _159  and  _160
REMARK   68  A    between atoms: _165  and  _166
REMARK   69  A    between atoms: _168  and  _170
REMARK   70  A    between atoms: _170  and  _171
REMARK   71  A    between atoms: _170  and  _173
REMARK   72  A    between atoms: _173  and  _174
REMARK   73  A    between atoms: _177  and  _179
REMARK   74  A    between atoms: _179  and  _180
REMARK   75  A    between atoms: _179  and  _182
REMARK   76  A    between atoms: _182  and  _183
REMARK   77  A    between atoms: _183  and  _184
REMARK   78  A    between atoms: _189  and  _191
REMARK   79  A    between atoms: _191  and  _192
REMARK   80  A    between atoms: _194  and  _196
REMARK   81  A    between atoms: _196  and  _197
REMARK   82  A    between atoms: _196  and  _199
REMARK   83  A    between atoms: _199  and  _200
REMARK   84  A    between atoms: _200  and  _201
REMARK   85  A    between atoms: _201  and  _202
REMARK   86  A    between atoms: _202  and  _203
REMARK   87  A    between atoms: _207  and  _209
REMARK   88  A    between atoms: _209  and  _210
REMARK   89  A    between atoms: _209  and  _212
REMARK   90  A    between atoms: _212  and  _213
REMARK   91  A    between atoms: _223  and  _225
REMARK   92  A    between atoms: _225  and  _226
REMARK   93  A    between atoms: _225  and  _228
REMARK   94  A    between atoms: _228  and  _229
REMARK   95  A    between atoms: _232  and  _234
REMARK   96  A    between atoms: _234  and  _235
REMARK   97  A    between atoms: _234  and  _237
REMARK   98  A    between atoms: _237  and  _238
REMARK   99  A    between atoms: _238  and  _239
REMARK  100  A    between atoms: _239  and  _240
REMARK  101  A    between atoms: _240  and  _241
REMARK  102  A    between atoms: _245  and  _247
REMARK  103  A    between atoms: _247  and  _248
REMARK  104  A    between atoms: _247  and  _250
REMARK  105  A    between atoms: _250  and  _251
REMARK  106  A    between atoms: _257  and  _259
REMARK  107  A    between atoms: _259  and  _260
REMARK  108  A    between atoms: _259  and  _262
REMARK  109  A    between atoms: _262  and  _263
REMARK  110  A    between atoms: _269  and  _271
REMARK  111  A    between atoms: _271  and  _272
REMARK  112  A    between atoms: _271  and  _274
REMARK  113  A    between atoms: _274  and  _275
REMARK  114  A    between atoms: _278  and  _280
REMARK  115  A    between atoms: _280  and  _281
REMARK  116  A    between atoms: _280  and  _283
REMARK  117  A    between atoms: _283  and  _284
REMARK  118  A    between atoms: _286  and  _288
REMARK  119  A    between atoms: _288  and  _289
REMARK  120  A    between atoms: _288  and  _291
REMARK  121  A    between atoms: _291  and  _292
REMARK  122  A    between atoms: _302  and  _304
REMARK  123  A    between atoms: _304  and  _305
REMARK  124  A    between atoms: _307  and  _309
REMARK  125  A    between atoms: _309  and  _310
REMARK  126  A    between atoms: _309  and  _312
REMARK  127  A    between atoms: _312  and  _313
REMARK  128  A    between atoms: _316  and  _318
REMARK  129  A    between atoms: _318  and  _319
REMARK  130  A    between atoms: _318  and  _321
REMARK  131  A    between atoms: _321  and  _322
REMARK  132  A    between atoms: _325  and  _327
REMARK  133  A    between atoms: _327  and  _328
REMARK  134  A    between atoms: _330  and  _332
REMARK  135  A    between atoms: _332  and  _333
REMARK  136  A    between atoms: _332  and  _335
REMARK  137  A    between atoms: _335  and  _336
REMARK  138  A    between atoms: _339  and  _341
REMARK  139  A    between atoms: _341  and  _342
REMARK  140  A    between atoms: _345  and  _347
REMARK  141  A    between atoms: _347  and  _348
REMARK  142  A    between atoms: _347  and  _350
REMARK  143  A    between atoms: _350  and  _351
REMARK  144  A    between atoms: _356  and  _357
REMARK  145  A    between atoms: _359  and  _361
REMARK  146  A    between atoms: _361  and  _362
REMARK  147  A    between atoms: _361  and  _364
REMARK  148  A    between atoms: _364  and  _365
REMARK  149  A    between atoms: _365  and  _366
REMARK  150  A    between atoms: _369  and  _371
REMARK  151  A    between atoms: _371  and  _372
REMARK  152  A    between atoms: _371  and  _374
REMARK  153  A    between atoms: _374  and  _375
REMARK  154  A    between atoms: _378  and  _380
REMARK  155  A    between atoms: _380  and  _381
REMARK  156  A    between atoms: _384  and  _386
REMARK  157  A    between atoms: _386  and  _387
REMARK  158  A    between atoms: _386  and  _389
REMARK  159  A    between atoms: _389  and  _390
REMARK  160  A    between atoms: _390  and  _391
REMARK  161  A    between atoms: _391  and  _392
REMARK  162  A    between atoms: _401  and  _403
REMARK  163  A    between atoms: _403  and  _404
REMARK  164  A    between atoms: _403  and  _406
REMARK  165  A    between atoms: _406  and  _407
REMARK  166  A    between atoms: _417  and  _419
REMARK  167  A    between atoms: _419  and  _420
REMARK  168  A    between atoms: _419  and  _422
REMARK  169  A    between atoms: _422  and  _423
REMARK  170  A    between atoms: _428  and  _429
REMARK  171  A    between atoms: _431  and  _433
REMARK  172  A    between atoms: _433  and  _434
REMARK  173  A    between atoms: _433  and  _436
REMARK  174  A    between atoms: _436  and  _437
REMARK  175  A    between atoms: _442  and  _443
REMARK  176  A    between atoms: _445  and  _447
REMARK  177  A    between atoms: _447  and  _448
REMARK  178  A    between atoms: _447  and  _450
REMARK  179  A    between atoms: _450  and  _451
REMARK  180  A    between atoms: _451  and  _452
REMARK  181  A    between atoms: _452  and  _453
REMARK  182  A    between atoms: _453  and  _454
REMARK  183  A    between atoms: _458  and  _460
REMARK  184  A    between atoms: _460  and  _461
REMARK  185  A    between atoms: _460  and  _463
REMARK  186  A    between atoms: _463  and  _464
REMARK  187  A    between atoms: _467  and  _469
REMARK  188  A    between atoms: _469  and  _470
REMARK  189  A    between atoms: _469  and  _472
REMARK  190  A    between atoms: _475  and  _477
REMARK  191  A    between atoms: _477  and  _478
REMARK  192  A    between atoms: _477  and  _480
REMARK  193  A    between atoms: _480  and  _481
REMARK  194  A    between atoms: _484  and  _486
REMARK  195  A    between atoms: _486  and  _487
REMARK  196  A    between atoms: _486  and  _489
REMARK  197  A    between atoms: _489  and  _490
REMARK  198  A    between atoms: _492  and  _494
REMARK  199  A    between atoms: _494  and  _495
REMARK  200  A    between atoms: _497  and  _499
REMARK  201  A    between atoms: _499  and  _500
REMARK  202  A    between atoms: _499  and  _502
REMARK  203  A    between atoms: _502  and  _503
REMARK  204  A    between atoms: _506  and  _508
REMARK  205  A    between atoms: _508  and  _509
REMARK  206  A    between atoms: _508  and  _511
REMARK  207  A    between atoms: _511  and  _512
REMARK  208  A    between atoms: _515  and  _517
REMARK  209  A    between atoms: _517  and  _518
REMARK  210  A    between atoms: _517  and  _520
REMARK  211  A    between atoms: _520  and  _521
REMARK  212  A    between atoms: _526  and  _528
REMARK  213  A    between atoms: _528  and  _529
REMARK  214  A    between atoms: _528  and  _531
REMARK  215  A    between atoms: _531  and  _532
REMARK  216  A    between atoms: _532  and  _533
REMARK  217  A    between atoms: _533  and  _534
REMARK  218  A    between atoms: _543  and  _545
REMARK  219  A    between atoms: _545  and  _546
REMARK  220  A    between atoms: _545  and  _548
REMARK  221  A    between atoms: _548  and  _549
REMARK  222  A    between atoms: _549  and  _550
REMARK  223  A    between atoms: _550  and  _551
REMARK  224  A    between atoms: _560  and  _562
REMARK  225  A    between atoms: _562  and  _563
REMARK  226  A    between atoms: _562  and  _565
REMARK  227  A    between atoms: _565  and  _566
REMARK  228  A    between atoms: _568  and  _570
REMARK  229  A    between atoms: _570  and  _571
REMARK  230  A    between atoms: _570  and  _573
REMARK  231  A    between atoms: _573  and  _574
REMARK  232  A    between atoms: _574  and  _575
REMARK  233  A    between atoms: _580  and  _582
REMARK  234  A    between atoms: _582  and  _583
REMARK  235  A    between atoms: _582  and  _585
REMARK  236  A    between atoms: _585  and  _586
REMARK  237  A    between atoms: _588  and  _590
REMARK  238  A    between atoms: _590  and  _591
REMARK  239  A    between atoms: _590  and  _593
REMARK  240  A    between atoms: _593  and  _594
REMARK  241  A    between atoms: _596  and  _598
REMARK  242  A    between atoms: _598  and  _599
REMARK  243  A    between atoms: _598  and  _601
REMARK  244  A    between atoms: _601  and  _602
REMARK  245  A    between atoms: _605  and  _607
REMARK  246  A    between atoms: _607  and  _608
REMARK  247  A    between atoms: _607  and  _610
REMARK  248  A    between atoms: _610  and  _611
REMARK  249  A    between atoms: _614  and  _616
REMARK  250  A    between atoms: _616  and  _617
REMARK  251  A    between atoms: _616  and  _619
REMARK  252  A    between atoms: _622  and  _624
REMARK  253  A    between atoms: _624  and  _625
REMARK  254  A    between atoms: _627  and  _629
REMARK  255  A    between atoms: _629  and  _630
REMARK  256  A    between atoms: _633  and  _635
REMARK  257  A    between atoms: _635  and  _636
REMARK  258  A    between atoms: _635  and  _638
REMARK                            x       y       z     vdW  Elec       q    Type
REMARK                         _______ _______ _______ _____ _____    ______ ____
ROOT
ATOM      1  O   HOH     1      19.902  13.356  30.457  0.00  0.00    +0.000 OA
ENDROOT
TORSDOF 0
REMARK  Name = ../refined-set-2016/3lpk/3lpk_pocket.pdb
REMARK  258 active torsions:
REMARK  status: ('A' for Active; 'I' for Inactive)
REMARK    1  A    between atoms: _1  and  _3
REMARK    2  A    between atoms: _3  and  _4
REMARK    3  A    between atoms: _3  and  _6
REMARK    4  A    between atoms: _6  and  _7
REMARK    5  A    between atoms: _7  and  _8
REMARK    6  A    between atoms: _8  and  _9
REMARK    7  A    between atoms: _9  and  _10
REMARK    8  A    between atoms: _14  and  _16
REMARK    9  A    between atoms: _16  and  _17
REMARK   10  A    between atoms: _16  and  _19
REMARK   11  A    between atoms: _19  and  _20
REMARK   12  A    between atoms: _22  and  _24
REMARK   13  A    between atoms: _24  and  _25
REMARK   14  A    between atoms: _27  and  _29
REMARK   15  A    between atoms: _29  and  _30
REMARK   16  A    between atoms: _29  and  _32
REMARK   17  A    between atoms: _32  and  _33
REMARK   18  A    between atoms: _33  and  _34
REMARK   19  A    between atoms: _39  and  _41
REMARK   20  A    between atoms: _41  and  _42
REMARK   21  A    between atoms: _44  and  _46
REMARK   22  A    between atoms: _46  and  _47
REMARK   23  A    between atoms: _46  and  _49
REMARK   24  A    between atoms: _49  and  _50
REMARK   25  A    between atoms: _55  and  _56
REMARK   26  A    between atoms: _58  and  _60
REMARK   27  A    between atoms: _60  and  _61
REMARK   28  A    between atoms: _60  and  _63
REMARK   29  A    between atoms: _63  and  _64
REMARK   30  A    between atoms: _67  and  _69
REMARK   31  A    between atoms: _69  and  _70
REMARK   32  A    between atoms: _69  and  _72
REMARK   33  A    between atoms: _75  and  _77
REMARK   34  A    between atoms: _77  and  _78
REMARK   35  A    between atoms: _77  and  _80
REMARK   36  A    between atoms: _80  and  _81
REMARK   37  A    between atoms: _84  and  _86
REMARK   38  A    between atoms: _86  and  _87
REMARK   39  A    between atoms: _86  and  _89
REMARK   40  A    between atoms: _89  and  _90
REMARK   41  A    between atoms: _93  and  _95
REMARK   42  A    between atoms: _95  and  _96
REMARK   43  A    between atoms: _98  and  _100
REMARK   44  A    between atoms: _100  and  _101
REMARK   45  A    between atoms: _100  and  _103
REMARK   46  A    between atoms: _103  and  _104
REMARK   47  A    between atoms: _106  and  _108
REMARK   48  A    between atoms: _108  and  _109
REMARK   49  A    between atoms: _108  and  _111
REMARK   50  A    between atoms: _111  and  _112
REMARK   51  A    between atoms: _114  and  _116
REMARK   52  A    between atoms: _116  and  _117
REMARK   53  A    between atoms: _116  and  _119
REMARK   54  A    between atoms: _119  and  _120
REMARK   55  A    between atoms: _125  and  _127
REMARK   56  A    between atoms: _127  and  _128
REMARK   57  A    between atoms: _127  and  _130
REMARK   58  A    between atoms: _130  and  _131
REMARK   59  A    between atoms: _136  and  _137
REMARK   60  A    between atoms: _139  and  _141
REMARK   61  A    between atoms: _141  and  _142
REMARK   62  A    between atoms: _141  and  _144
REMARK   63  A    between atoms: _148  and  _149
REMARK   64  A    between atoms: _154  and  _156
REMARK   65  A    between atoms: _156  and  _157
REMARK   66  A    between atoms: _156  and  _159
REMARK   67  A    between atoms: _159  and  _160
REMARK   68  A    between atoms: _165  and  _166
REMARK   69  A    between atoms: _168  and  _170
REMARK   70  A    between atoms: _170  and  _171
REMARK   71  A    between atoms: _170  and  _173
REMARK   72  A    between atoms: _173  and  _174
REMARK   73  A    between atoms: _177  and  _179
REMARK   74  A    between atoms: _179  and  _180
REMARK   75  A    between atoms: _179  and  _182
REMARK   76  A    between atoms: _182  and  _183
REMARK   77  A    between atoms: _183  and  _184
REMARK   78  A    between atoms: _189  and  _191
REMARK   79  A    between atoms: _191  and  _192
REMARK   80  A    between atoms: _194  and  _196
REMARK   81  A    between atoms: _196  and  _197
REMARK   82  A    between atoms: _196  and  _199
REMARK   83  A    between atoms: _199  and  _200
REMARK   84  A    between atoms: _200  and  _201
REMARK   85  A    between atoms: _201  and  _202
REMARK   86  A    between atoms: _202  and  _203
REMARK   87  A    between atoms: _207  and  _209
REMARK   88  A    between atoms: _209  and  _210
REMARK   89  A    between atoms: _209  and  _212
REMARK   90  A    between atoms: _212  and  _213
REMARK   91  A    between atoms: _223  and  _225
REMARK   92  A    between atoms: _225  and  _226
REMARK   93  A    between atoms: _225  and  _228
REMARK   94  A    between atoms: _228  and  _229
REMARK   95  A    between atoms: _232  and  _234
REMARK   96  A    between atoms: _234  and  _235
REMARK   97  A    between atoms: _234  and  _237
REMARK   98  A    between atoms: _237  and  _238
REMARK   99  A    between atoms: _238  and  _239
REMARK  100  A    between atoms: _239  and  _240
REMARK  101  A    between atoms: _240  and  _241
REMARK  102  A    between atoms: _245  and  _247
REMARK  103  A    between atoms: _247  and  _248
REMARK  104  A    between atoms: _247  and  _250
REMARK  105  A    between atoms: _250  and  _251
REMARK  106  A    between atoms: _257  and  _259
REMARK  107  A    between atoms: _259  and  _260
REMARK  108  A    between atoms: _259  and  _262
REMARK  109  A    between atoms: _262  and  _263
REMARK  110  A    between atoms: _269  and  _271
REMARK  111  A    between atoms: _271  and  _272
REMARK  112  A    between atoms: _271  and  _274
REMARK  113  A    between atoms: _274  and  _275
REMARK  114  A    between atoms: _278  and  _280
REMARK  115  A    between atoms: _280  and  _281
REMARK  116  A    between atoms: _280  and  _283
REMARK  117  A    between atoms: _283  and  _284
REMARK  118  A    between atoms: _286  and  _288
REMARK  119  A    between atoms: _288  and  _289
REMARK  120  A    between atoms: _288  and  _291
REMARK  121  A    between atoms: _291  and  _292
REMARK  122  A    between atoms: _302  and  _304
REMARK  123  A    between atoms: _304  and  _305
REMARK  124  A    between atoms: _307  and  _309
REMARK  125  A    between atoms: _309  and  _310
REMARK  126  A    between atoms: _309  and  _312
REMARK  127  A    between atoms: _312  and  _313
REMARK  128  A    between atoms: _316  and  _318
REMARK  129  A    between atoms: _318  and  _319
REMARK  130  A    between atoms: _318  and  _321
REMARK  131  A    between atoms: _321  and  _322
REMARK  132  A    between atoms: _325  and  _327
REMARK  133  A    between atoms: _327  and  _328
REMARK  134  A    between atoms: _330  and  _332
REMARK  135  A    between atoms: _332  and  _333
REMARK  136  A    between atoms: _332  and  _335
REMARK  137  A    between atoms: _335  and  _336
REMARK  138  A    between atoms: _339  and  _341
REMARK  139  A    between atoms: _341  and  _342
REMARK  140  A    between atoms: _345  and  _347
REMARK  141  A    between atoms: _347  and  _348
REMARK  142  A    between atoms: _347  and  _350
REMARK  143  A    between atoms: _350  and  _351
REMARK  144  A    between atoms: _356  and  _357
REMARK  145  A    between atoms: _359  and  _361
REMARK  146  A    between atoms: _361  and  _362
REMARK  147  A    between atoms: _361  and  _364
REMARK  148  A    between atoms: _364  and  _365
REMARK  149  A    between atoms: _365  and  _366
REMARK  150  A    between atoms: _369  and  _371
REMARK  151  A    between atoms: _371  and  _372
REMARK  152  A    between atoms: _371  and  _374
REMARK  153  A    between atoms: _374  and  _375
REMARK  154  A    between atoms: _378  and  _380
REMARK  155  A    between atoms: _380  and  _381
REMARK  156  A    between atoms: _384  and  _386
REMARK  157  A    between atoms: _386  and  _387
REMARK  158  A    between atoms: _386  and  _389
REMARK  159  A    between atoms: _389  and  _390
REMARK  160  A    between atoms: _390  and  _391
REMARK  161  A    between atoms: _391  and  _392
REMARK  162  A    between atoms: _401  and  _403
REMARK  163  A    between atoms: _403  and  _404
REMARK  164  A    between atoms: _403  and  _406
REMARK  165  A    between atoms: _406  and  _407
REMARK  166  A    between atoms: _417  and  _419
REMARK  167  A    between atoms: _419  and  _420
REMARK  168  A    between atoms: _419  and  _422
REMARK  169  A    between atoms: _422  and  _423
REMARK  170  A    between atoms: _428  and  _429
REMARK  171  A    between atoms: _431  and  _433
REMARK  172  A    between atoms: _433  and  _434
REMARK  173  A    between atoms: _433  and  _436
REMARK  174  A    between atoms: _436  and  _437
REMARK  175  A    between atoms: _442  and  _443
REMARK  176  A    between atoms: _445  and  _447
REMARK  177  A    between atoms: _447  and  _448
REMARK  178  A    between atoms: _447  and  _450
REMARK  179  A    between atoms: _450  and  _451
REMARK  180  A    between atoms: _451  and  _452
REMARK  181  A    between atoms: _452  and  _453
REMARK  182  A    between atoms: _453  and  _454
REMARK  183  A    between atoms: _458  and  _460
REMARK  184  A    between atoms: _460  and  _461
REMARK  185  A    between atoms: _460  and  _463
REMARK  186  A    between atoms: _463  and  _464
REMARK  187  A    between atoms: _467  and  _469
REMARK  188  A    between atoms: _469  and  _470
REMARK  189  A    between atoms: _469  and  _472
REMARK  190  A    between atoms: _475  and  _477
REMARK  191  A    between atoms: _477  and  _478
REMARK  192  A    between atoms: _477  and  _480
REMARK  193  A    between atoms: _480  and  _481
REMARK  194  A    between atoms: _484  and  _486
REMARK  195  A    between atoms: _486  and  _487
REMARK  196  A    between atoms: _486  and  _489
REMARK  197  A    between atoms: _489  and  _490
REMARK  198  A    between atoms: _492  and  _494
REMARK  199  A    between atoms: _494  and  _495
REMARK  200  A    between atoms: _497  and  _499
REMARK  201  A    between atoms: _499  and  _500
REMARK  202  A    between atoms: _499  and  _502
REMARK  203  A    between atoms: _502  and  _503
REMARK  204  A    between atoms: _506  and  _508
REMARK  205  A    between atoms: _508  and  _509
REMARK  206  A    between atoms: _508  and  _511
REMARK  207  A    between atoms: _511  and  _512
REMARK  208  A    between atoms: _515  and  _517
REMARK  209  A    between atoms: _517  and  _518
REMARK  210  A    between atoms: _517  and  _520
REMARK  211  A    between atoms: _520  and  _521
REMARK  212  A    between atoms: _526  and  _528
REMARK  213  A    between atoms: _528  and  _529
REMARK  214  A    between atoms: _528  and  _531
REMARK  215  A    between atoms: _531  and  _532
REMARK  216  A    between atoms: _532  and  _533
REMARK  217  A    between atoms: _533  and  _534
REMARK  218  A    between atoms: _543  and  _545
REMARK  219  A    between atoms: _545  and  _546
REMARK  220  A    between atoms: _545  and  _548
REMARK  221  A    between atoms: _548  and  _549
REMARK  222  A    between atoms: _549  and  _550
REMARK  223  A    between atoms: _550  and  _551
REMARK  224  A    between atoms: _560  and  _562
REMARK  225  A    between atoms: _562  and  _563
REMARK  226  A    between atoms: _562  and  _565
REMARK  227  A    between atoms: _565  and  _566
REMARK  228  A    between atoms: _568  and  _570
REMARK  229  A    between atoms: _570  and  _571
REMARK  230  A    between atoms: _570  and  _573
REMARK  231  A    between atoms: _573  and  _574
REMARK  232  A    between atoms: _574  and  _575
REMARK  233  A    between atoms: _580  and  _582
REMARK  234  A    between atoms: _582  and  _583
REMARK  235  A    between atoms: _582  and  _585
REMARK  236  A    between atoms: _585  and  _586
REMARK  237  A    between atoms: _588  and  _590
REMARK  238  A    between atoms: _590  and  _591
REMARK  239  A    between atoms: _590  and  _593
REMARK  240  A    between atoms: _593  and  _594
REMARK  241  A    between atoms: _596  and  _598
REMARK  242  A    between atoms: _598  and  _599
REMARK  243  A    between atoms: _598  and  _601
REMARK  244  A    between atoms: _601  and  _602
REMARK  245  A    between atoms: _605  and  _607
REMARK  246  A    between atoms: _607  and  _608
REMARK  247  A    between atoms: _607  and  _610
REMARK  248  A    between atoms: _610  and  _611
REMARK  249  A    between atoms: _614  and  _616
REMARK  250  A    between atoms: _616  and  _617
REMARK  251  A    between atoms: _616  and  _619
REMARK  252  A    between atoms: _622  and  _624
REMARK  253  A    between atoms: _624  and  _625
REMARK  254  A    between atoms: _627  and  _629
REMARK  255  A    between atoms: _629  and  _630
REMARK  256  A    between atoms: _633  and  _635
REMARK  257  A    between atoms: _635  and  _636
REMARK  258  A    between atoms: _635  and  _638
REMARK                            x       y       z     vdW  Elec       q    Type
REMARK                         _______ _______ _______ _____ _____    ______ ____
ROOT
ATOM      1  O   HOH     1      17.463  13.060  29.896  0.00  0.00    +0.000 OA
ENDROOT
TORSDOF 0
REMARK  Name = ../refined-set-2016/3lpk/3lpk_pocket.pdb
REMARK  258 active torsions:
REMARK  status: ('A' for Active; 'I' for Inactive)
REMARK    1  A    between atoms: _1  and  _3
REMARK    2  A    between atoms: _3  and  _4
REMARK    3  A    between atoms: _3  and  _6
REMARK    4  A    between atoms: _6  and  _7
REMARK    5  A    between atoms: _7  and  _8
REMARK    6  A    between atoms: _8  and  _9
REMARK    7  A    between atoms: _9  and  _10
REMARK    8  A    between atoms: _14  and  _16
REMARK    9  A    between atoms: _16  and  _17
REMARK   10  A    between atoms: _16  and  _19
REMARK   11  A    between atoms: _19  and  _20
REMARK   12  A    between atoms: _22  and  _24
REMARK   13  A    between atoms: _24  and  _25
REMARK   14  A    between atoms: _27  and  _29
REMARK   15  A    between atoms: _29  and  _30
REMARK   16  A    between atoms: _29  and  _32
REMARK   17  A    between atoms: _32  and  _33
REMARK   18  A    between atoms: _33  and  _34
REMARK   19  A    between atoms: _39  and  _41
REMARK   20  A    between atoms: _41  and  _42
REMARK   21  A    between atoms: _44  and  _46
REMARK   22  A    between atoms: _46  and  _47
REMARK   23  A    between atoms: _46  and  _49
REMARK   24  A    between atoms: _49  and  _50
REMARK   25  A    between atoms: _55  and  _56
REMARK   26  A    between atoms: _58  and  _60
REMARK   27  A    between atoms: _60  and  _61
REMARK   28  A    between atoms: _60  and  _63
REMARK   29  A    between atoms: _63  and  _64
REMARK   30  A    between atoms: _67  and  _69
REMARK   31  A    between atoms: _69  and  _70
REMARK   32  A    between atoms: _69  and  _72
REMARK   33  A    between atoms: _75  and  _77
REMARK   34  A    between atoms: _77  and  _78
REMARK   35  A    between atoms: _77  and  _80
REMARK   36  A    between atoms: _80  and  _81
REMARK   37  A    between atoms: _84  and  _86
REMARK   38  A    between atoms: _86  and  _87
REMARK   39  A    between atoms: _86  and  _89
REMARK   40  A    between atoms: _89  and  _90
REMARK   41  A    between atoms: _93  and  _95
REMARK   42  A    between atoms: _95  and  _96
REMARK   43  A    between atoms: _98  and  _100
REMARK   44  A    between atoms: _100  and  _101
REMARK   45  A    between atoms: _100  and  _103
REMARK   46  A    between atoms: _103  and  _104
REMARK   47  A    between atoms: _106  and  _108
REMARK   48  A    between atoms: _108  and  _109
REMARK   49  A    between atoms: _108  and  _111
REMARK   50  A    between atoms: _111  and  _112
REMARK   51  A    between atoms: _114  and  _116
REMARK   52  A    between atoms: _116  and  _117
REMARK   53  A    between atoms: _116  and  _119
REMARK   54  A    between atoms: _119  and  _120
REMARK   55  A    between atoms: _125  and  _127
REMARK   56  A    between atoms: _127  and  _128
REMARK   57  A    between atoms: _127  and  _130
REMARK   58  A    between atoms: _130  and  _131
REMARK   59  A    between atoms: _136  and  _137
REMARK   60  A    between atoms: _139  and  _141
REMARK   61  A    between atoms: _141  and  _142
REMARK   62  A    between atoms: _141  and  _144
REMARK   63  A    between atoms: _148  and  _149
REMARK   64  A    between atoms: _154  and  _156
REMARK   65  A    between atoms: _156  and  _157
REMARK   66  A    between atoms: _156  and  _159
REMARK   67  A    between atoms: _159  and  _160
REMARK   68  A    between atoms: _165  and  _166
REMARK   69  A    between atoms: _168  and  _170
REMARK   70  A    between atoms: _170  and  _171
REMARK   71  A    between atoms: _170  and  _173
REMARK   72  A    between atoms: _173  and  _174
REMARK   73  A    between atoms: _177  and  _179
REMARK   74  A    between atoms: _179  and  _180
REMARK   75  A    between atoms: _179  and  _182
REMARK   76  A    between atoms: _182  and  _183
REMARK   77  A    between atoms: _183  and  _184
REMARK   78  A    between atoms: _189  and  _191
REMARK   79  A    between atoms: _191  and  _192
REMARK   80  A    between atoms: _194  and  _196
REMARK   81  A    between atoms: _196  and  _197
REMARK   82  A    between atoms: _196  and  _199
REMARK   83  A    between atoms: _199  and  _200
REMARK   84  A    between atoms: _200  and  _201
REMARK   85  A    between atoms: _201  and  _202
REMARK   86  A    between atoms: _202  and  _203
REMARK   87  A    between atoms: _207  and  _209
REMARK   88  A    between atoms: _209  and  _210
REMARK   89  A    between atoms: _209  and  _212
REMARK   90  A    between atoms: _212  and  _213
REMARK   91  A    between atoms: _223  and  _225
REMARK   92  A    between atoms: _225  and  _226
REMARK   93  A    between atoms: _225  and  _228
REMARK   94  A    between atoms: _228  and  _229
REMARK   95  A    between atoms: _232  and  _234
REMARK   96  A    between atoms: _234  and  _235
REMARK   97  A    between atoms: _234  and  _237
REMARK   98  A    between atoms: _237  and  _238
REMARK   99  A    between atoms: _238  and  _239
REMARK  100  A    between atoms: _239  and  _240
REMARK  101  A    between atoms: _240  and  _241
REMARK  102  A    between atoms: _245  and  _247
REMARK  103  A    between atoms: _247  and  _248
REMARK  104  A    between atoms: _247  and  _250
REMARK  105  A    between atoms: _250  and  _251
REMARK  106  A    between atoms: _257  and  _259
REMARK  107  A    between atoms: _259  and  _260
REMARK  108  A    between atoms: _259  and  _262
REMARK  109  A    between atoms: _262  and  _263
REMARK  110  A    between atoms: _269  and  _271
REMARK  111  A    between atoms: _271  and  _272
REMARK  112  A    between atoms: _271  and  _274
REMARK  113  A    between atoms: _274  and  _275
REMARK  114  A    between atoms: _278  and  _280
REMARK  115  A    between atoms: _280  and  _281
REMARK  116  A    between atoms: _280  and  _283
REMARK  117  A    between atoms: _283  and  _284
REMARK  118  A    between atoms: _286  and  _288
REMARK  119  A    between atoms: _288  and  _289
REMARK  120  A    between atoms: _288  and  _291
REMARK  121  A    between atoms: _291  and  _292
REMARK  122  A    between atoms: _302  and  _304
REMARK  123  A    between atoms: _304  and  _305
REMARK  124  A    between atoms: _307  and  _309
REMARK  125  A    between atoms: _309  and  _310
REMARK  126  A    between atoms: _309  and  _312
REMARK  127  A    between atoms: _312  and  _313
REMARK  128  A    between atoms: _316  and  _318
REMARK  129  A    between atoms: _318  and  _319
REMARK  130  A    between atoms: _318  and  _321
REMARK  131  A    between atoms: _321  and  _322
REMARK  132  A    between atoms: _325  and  _327
REMARK  133  A    between atoms: _327  and  _328
REMARK  134  A    between atoms: _330  and  _332
REMARK  135  A    between atoms: _332  and  _333
REMARK  136  A    between atoms: _332  and  _335
REMARK  137  A    between atoms: _335  and  _336
REMARK  138  A    between atoms: _339  and  _341
REMARK  139  A    between atoms: _341  and  _342
REMARK  140  A    between atoms: _345  and  _347
REMARK  141  A    between atoms: _347  and  _348
REMARK  142  A    between atoms: _347  and  _350
REMARK  143  A    between atoms: _350  and  _351
REMARK  144  A    between atoms: _356  and  _357
REMARK  145  A    between atoms: _359  and  _361
REMARK  146  A    between atoms: _361  and  _362
REMARK  147  A    between atoms: _361  and  _364
REMARK  148  A    between atoms: _364  and  _365
REMARK  149  A    between atoms: _365  and  _366
REMARK  150  A    between atoms: _369  and  _371
REMARK  151  A    between atoms: _371  and  _372
REMARK  152  A    between atoms: _371  and  _374
REMARK  153  A    between atoms: _374  and  _375
REMARK  154  A    between atoms: _378  and  _380
REMARK  155  A    between atoms: _380  and  _381
REMARK  156  A    between atoms: _384  and  _386
REMARK  157  A    between atoms: _386  and  _387
REMARK  158  A    between atoms: _386  and  _389
REMARK  159  A    between atoms: _389  and  _390
REMARK  160  A    between atoms: _390  and  _391
REMARK  161  A    between atoms: _391  and  _392
REMARK  162  A    between atoms: _401  and  _403
REMARK  163  A    between atoms: _403  and  _404
REMARK  164  A    between atoms: _403  and  _406
REMARK  165  A    between atoms: _406  and  _407
REMARK  166  A    between atoms: _417  and  _419
REMARK  167  A    between atoms: _419  and  _420
REMARK  168  A    between atoms: _419  and  _422
REMARK  169  A    between atoms: _422  and  _423
REMARK  170  A    between atoms: _428  and  _429
REMARK  171  A    between atoms: _431  and  _433
REMARK  172  A    between atoms: _433  and  _434
REMARK  173  A    between atoms: _433  and  _436
REMARK  174  A    between atoms: _436  and  _437
REMARK  175  A    between atoms: _442  and  _443
REMARK  176  A    between atoms: _445  and  _447
REMARK  177  A    between atoms: _447  and  _448
REMARK  178  A    between atoms: _447  and  _450
REMARK  179  A    between atoms: _450  and  _451
REMARK  180  A    between atoms: _451  and  _452
REMARK  181  A    between atoms: _452  and  _453
REMARK  182  A    between atoms: _453  and  _454
REMARK  183  A    between atoms: _458  and  _460
REMARK  184  A    between atoms: _460  and  _461
REMARK  185  A    between atoms: _460  and  _463
REMARK  186  A    between atoms: _463  and  _464
REMARK  187  A    between atoms: _467  and  _469
REMARK  188  A    between atoms: _469  and  _470
REMARK  189  A    between atoms: _469  and  _472
REMARK  190  A    between atoms: _475  and  _477
REMARK  191  A    between atoms: _477  and  _478
REMARK  192  A    between atoms: _477  and  _480
REMARK  193  A    between atoms: _480  and  _481
REMARK  194  A    between atoms: _484  and  _486
REMARK  195  A    between atoms: _486  and  _487
REMARK  196  A    between atoms: _486  and  _489
REMARK  197  A    between atoms: _489  and  _490
REMARK  198  A    between atoms: _492  and  _494
REMARK  199  A    between atoms: _494  and  _495
REMARK  200  A    between atoms: _497  and  _499
REMARK  201  A    between atoms: _499  and  _500
REMARK  202  A    between atoms: _499  and  _502
REMARK  203  A    between atoms: _502  and  _503
REMARK  204  A    between atoms: _506  and  _508
REMARK  205  A    between atoms: _508  and  _509
REMARK  206  A    between atoms: _508  and  _511
REMARK  207  A    between atoms: _511  and  _512
REMARK  208  A    between atoms: _515  and  _517
REMARK  209  A    between atoms: _517  and  _518
REMARK  210  A    between atoms: _517  and  _520
REMARK  211  A    between atoms: _520  and  _521
REMARK  212  A    between atoms: _526  and  _528
REMARK  213  A    between atoms: _528  and  _529
REMARK  214  A    between atoms: _528  and  _531
REMARK  215  A    between atoms: _531  and  _532
REMARK  216  A    between atoms: _532  and  _533
REMARK  217  A    between atoms: _533  and  _534
REMARK  218  A    between atoms: _543  and  _545
REMARK  219  A    between atoms: _545  and  _546
REMARK  220  A    between atoms: _545  and  _548
REMARK  221  A    between atoms: _548  and  _549
REMARK  222  A    between atoms: _549  and  _550
REMARK  223  A    between atoms: _550  and  _551
REMARK  224  A    between atoms: _560  and  _562
REMARK  225  A    between atoms: _562  and  _563
REMARK  226  A    between atoms: _562  and  _565
REMARK  227  A    between atoms: _565  and  _566
REMARK  228  A    between atoms: _568  and  _570
REMARK  229  A    between atoms: _570  and  _571
REMARK  230  A    between atoms: _570  and  _573
REMARK  231  A    between atoms: _573  and  _574
REMARK  232  A    between atoms: _574  and  _575
REMARK  233  A    between atoms: _580  and  _582
REMARK  234  A    between atoms: _582  and  _583
REMARK  235  A    between atoms: _582  and  _585
REMARK  236  A    between atoms: _585  and  _586
REMARK  237  A    between atoms: _588  and  _590
REMARK  238  A    between atoms: _590  and  _591
REMARK  239  A    between atoms: _590  and  _593
REMARK  240  A    between atoms: _593  and  _594
REMARK  241  A    between atoms: _596  and  _598
REMARK  242  A    between atoms: _598  and  _599
REMARK  243  A    between atoms: _598  and  _601
REMARK  244  A    between atoms: _601  and  _602
REMARK  245  A    between atoms: _605  and  _607
REMARK  246  A    between atoms: _607  and  _608
REMARK  247  A    between atoms: _607  and  _610
REMARK  248  A    between atoms: _610  and  _611
REMARK  249  A    between atoms: _614  and  _616
REMARK  250  A    between atoms: _616  and  _617
REMARK  251  A    between atoms: _616  and  _619
REMARK  252  A    between atoms: _622  and  _624
REMARK  253  A    between atoms: _624  and  _625
REMARK  254  A    between atoms: _627  and  _629
REMARK  255  A    between atoms: _629  and  _630
REMARK  256  A    between atoms: _633  and  _635
REMARK  257  A    between atoms: _635  and  _636
REMARK  258  A    between atoms: _635  and  _638
REMARK                            x       y       z     vdW  Elec       q    Type
REMARK                         _______ _______ _______ _____ _____    ______ ____
ROOT
ATOM      1  O   HOH     1      31.010  16.240  12.629  0.00  0.00    +0.000 OA
ENDROOT
TORSDOF 0
REMARK  Name = ../refined-set-2016/3lpk/3lpk_pocket.pdb
REMARK  258 active torsions:
REMARK  status: ('A' for Active; 'I' for Inactive)
REMARK    1  A    between atoms: _1  and  _3
REMARK    2  A    between atoms: _3  and  _4
REMARK    3  A    between atoms: _3  and  _6
REMARK    4  A    between atoms: _6  and  _7
REMARK    5  A    between atoms: _7  and  _8
REMARK    6  A    between atoms: _8  and  _9
REMARK    7  A    between atoms: _9  and  _10
REMARK    8  A    between atoms: _14  and  _16
REMARK    9  A    between atoms: _16  and  _17
REMARK   10  A    between atoms: _16  and  _19
REMARK   11  A    between atoms: _19  and  _20
REMARK   12  A    between atoms: _22  and  _24
REMARK   13  A    between atoms: _24  and  _25
REMARK   14  A    between atoms: _27  and  _29
REMARK   15  A    between atoms: _29  and  _30
REMARK   16  A    between atoms: _29  and  _32
REMARK   17  A    between atoms: _32  and  _33
REMARK   18  A    between atoms: _33  and  _34
REMARK   19  A    between atoms: _39  and  _41
REMARK   20  A    between atoms: _41  and  _42
REMARK   21  A    between atoms: _44  and  _46
REMARK   22  A    between atoms: _46  and  _47
REMARK   23  A    between atoms: _46  and  _49
REMARK   24  A    between atoms: _49  and  _50
REMARK   25  A    between atoms: _55  and  _56
REMARK   26  A    between atoms: _58  and  _60
REMARK   27  A    between atoms: _60  and  _61
REMARK   28  A    between atoms: _60  and  _63
REMARK   29  A    between atoms: _63  and  _64
REMARK   30  A    between atoms: _67  and  _69
REMARK   31  A    between atoms: _69  and  _70
REMARK   32  A    between atoms: _69  and  _72
REMARK   33  A    between atoms: _75  and  _77
REMARK   34  A    between atoms: _77  and  _78
REMARK   35  A    between atoms: _77  and  _80
REMARK   36  A    between atoms: _80  and  _81
REMARK   37  A    between atoms: _84  and  _86
REMARK   38  A    between atoms: _86  and  _87
REMARK   39  A    between atoms: _86  and  _89
REMARK   40  A    between atoms: _89  and  _90
REMARK   41  A    between atoms: _93  and  _95
REMARK   42  A    between atoms: _95  and  _96
REMARK   43  A    between atoms: _98  and  _100
REMARK   44  A    between atoms: _100  and  _101
REMARK   45  A    between atoms: _100  and  _103
REMARK   46  A    between atoms: _103  and  _104
REMARK   47  A    between atoms: _106  and  _108
REMARK   48  A    between atoms: _108  and  _109
REMARK   49  A    between atoms: _108  and  _111
REMARK   50  A    between atoms: _111  and  _112
REMARK   51  A    between atoms: _114  and  _116
REMARK   52  A    between atoms: _116  and  _117
REMARK   53  A    between atoms: _116  and  _119
REMARK   54  A    between atoms: _119  and  _120
REMARK   55  A    between atoms: _125  and  _127
REMARK   56  A    between atoms: _127  and  _128
REMARK   57  A    between atoms: _127  and  _130
REMARK   58  A    between atoms: _130  and  _131
REMARK   59  A    between atoms: _136  and  _137
REMARK   60  A    between atoms: _139  and  _141
REMARK   61  A    between atoms: _141  and  _142
REMARK   62  A    between atoms: _141  and  _144
REMARK   63  A    between atoms: _148  and  _149
REMARK   64  A    between atoms: _154  and  _156
REMARK   65  A    between atoms: _156  and  _157
REMARK   66  A    between atoms: _156  and  _159
REMARK   67  A    between atoms: _159  and  _160
REMARK   68  A    between atoms: _165  and  _166
REMARK   69  A    between atoms: _168  and  _170
REMARK   70  A    between atoms: _170  and  _171
REMARK   71  A    between atoms: _170  and  _173
REMARK   72  A    between atoms: _173  and  _174
REMARK   73  A    between atoms: _177  and  _179
REMARK   74  A    between atoms: _179  and  _180
REMARK   75  A    between atoms: _179  and  _182
REMARK   76  A    between atoms: _182  and  _183
REMARK   77  A    between atoms: _183  and  _184
REMARK   78  A    between atoms: _189  and  _191
REMARK   79  A    between atoms: _191  and  _192
REMARK   80  A    between atoms: _194  and  _196
REMARK   81  A    between atoms: _196  and  _197
REMARK   82  A    between atoms: _196  and  _199
REMARK   83  A    between atoms: _199  and  _200
REMARK   84  A    between atoms: _200  and  _201
REMARK   85  A    between atoms: _201  and  _202
REMARK   86  A    between atoms: _202  and  _203
REMARK   87  A    between atoms: _207  and  _209
REMARK   88  A    between atoms: _209  and  _210
REMARK   89  A    between atoms: _209  and  _212
REMARK   90  A    between atoms: _212  and  _213
REMARK   91  A    between atoms: _223  and  _225
REMARK   92  A    between atoms: _225  and  _226
REMARK   93  A    between atoms: _225  and  _228
REMARK   94  A    between atoms: _228  and  _229
REMARK   95  A    between atoms: _232  and  _234
REMARK   96  A    between atoms: _234  and  _235
REMARK   97  A    between atoms: _234  and  _237
REMARK   98  A    between atoms: _237  and  _238
REMARK   99  A    between atoms: _238  and  _239
REMARK  100  A    between atoms: _239  and  _240
REMARK  101  A    between atoms: _240  and  _241
REMARK  102  A    between atoms: _245  and  _247
REMARK  103  A    between atoms: _247  and  _248
REMARK  104  A    between atoms: _247  and  _250
REMARK  105  A    between atoms: _250  and  _251
REMARK  106  A    between atoms: _257  and  _259
REMARK  107  A    between atoms: _259  and  _260
REMARK  108  A    between atoms: _259  and  _262
REMARK  109  A    between atoms: _262  and  _263
REMARK  110  A    between atoms: _269  and  _271
REMARK  111  A    between atoms: _271  and  _272
REMARK  112  A    between atoms: _271  and  _274
REMARK  113  A    between atoms: _274  and  _275
REMARK  114  A    between atoms: _278  and  _280
REMARK  115  A    between atoms: _280  and  _281
REMARK  116  A    between atoms: _280  and  _283
REMARK  117  A    between atoms: _283  and  _284
REMARK  118  A    between atoms: _286  and  _288
REMARK  119  A    between atoms: _288  and  _289
REMARK  120  A    between atoms: _288  and  _291
REMARK  121  A    between atoms: _291  and  _292
REMARK  122  A    between atoms: _302  and  _304
REMARK  123  A    between atoms: _304  and  _305
REMARK  124  A    between atoms: _307  and  _309
REMARK  125  A    between atoms: _309  and  _310
REMARK  126  A    between atoms: _309  and  _312
REMARK  127  A    between atoms: _312  and  _313
REMARK  128  A    between atoms: _316  and  _318
REMARK  129  A    between atoms: _318  and  _319
REMARK  130  A    between atoms: _318  and  _321
REMARK  131  A    between atoms: _321  and  _322
REMARK  132  A    between atoms: _325  and  _327
REMARK  133  A    between atoms: _327  and  _328
REMARK  134  A    between atoms: _330  and  _332
REMARK  135  A    between atoms: _332  and  _333
REMARK  136  A    between atoms: _332  and  _335
REMARK  137  A    between atoms: _335  and  _336
REMARK  138  A    between atoms: _339  and  _341
REMARK  139  A    between atoms: _341  and  _342
REMARK  140  A    between atoms: _345  and  _347
REMARK  141  A    between atoms: _347  and  _348
REMARK  142  A    between atoms: _347  and  _350
REMARK  143  A    between atoms: _350  and  _351
REMARK  144  A    between atoms: _356  and  _357
REMARK  145  A    between atoms: _359  and  _361
REMARK  146  A    between atoms: _361  and  _362
REMARK  147  A    between atoms: _361  and  _364
REMARK  148  A    between atoms: _364  and  _365
REMARK  149  A    between atoms: _365  and  _366
REMARK  150  A    between atoms: _369  and  _371
REMARK  151  A    between atoms: _371  and  _372
REMARK  152  A    between atoms: _371  and  _374
REMARK  153  A    between atoms: _374  and  _375
REMARK  154  A    between atoms: _378  and  _380
REMARK  155  A    between atoms: _380  and  _381
REMARK  156  A    between atoms: _384  and  _386
REMARK  157  A    between atoms: _386  and  _387
REMARK  158  A    between atoms: _386  and  _389
REMARK  159  A    between atoms: _389  and  _390
REMARK  160  A    between atoms: _390  and  _391
REMARK  161  A    between atoms: _391  and  _392
REMARK  162  A    between atoms: _401  and  _403
REMARK  163  A    between atoms: _403  and  _404
REMARK  164  A    between atoms: _403  and  _406
REMARK  165  A    between atoms: _406  and  _407
REMARK  166  A    between atoms: _417  and  _419
REMARK  167  A    between atoms: _419  and  _420
REMARK  168  A    between atoms: _419  and  _422
REMARK  169  A    between atoms: _422  and  _423
REMARK  170  A    between atoms: _428  and  _429
REMARK  171  A    between atoms: _431  and  _433
REMARK  172  A    between atoms: _433  and  _434
REMARK  173  A    between atoms: _433  and  _436
REMARK  174  A    between atoms: _436  and  _437
REMARK  175  A    between atoms: _442  and  _443
REMARK  176  A    between atoms: _445  and  _447
REMARK  177  A    between atoms: _447  and  _448
REMARK  178  A    between atoms: _447  and  _450
REMARK  179  A    between atoms: _450  and  _451
REMARK  180  A    between atoms: _451  and  _452
REMARK  181  A    between atoms: _452  and  _453
REMARK  182  A    between atoms: _453  and  _454
REMARK  183  A    between atoms: _458  and  _460
REMARK  184  A    between atoms: _460  and  _461
REMARK  185  A    between atoms: _460  and  _463
REMARK  186  A    between atoms: _463  and  _464
REMARK  187  A    between atoms: _467  and  _469
REMARK  188  A    between atoms: _469  and  _470
REMARK  189  A    between atoms: _469  and  _472
REMARK  190  A    between atoms: _475  and  _477
REMARK  191  A    between atoms: _477  and  _478
REMARK  192  A    between atoms: _477  and  _480
REMARK  193  A    between atoms: _480  and  _481
REMARK  194  A    between atoms: _484  and  _486
REMARK  195  A    between atoms: _486  and  _487
REMARK  196  A    between atoms: _486  and  _489
REMARK  197  A    between atoms: _489  and  _490
REMARK  198  A    between atoms: _492  and  _494
REMARK  199  A    between atoms: _494  and  _495
REMARK  200  A    between atoms: _497  and  _499
REMARK  201  A    between atoms: _499  and  _500
REMARK  202  A    between atoms: _499  and  _502
REMARK  203  A    between atoms: _502  and  _503
REMARK  204  A    between atoms: _506  and  _508
REMARK  205  A    between atoms: _508  and  _509
REMARK  206  A    between atoms: _508  and  _511
REMARK  207  A    between atoms: _511  and  _512
REMARK  208  A    between atoms: _515  and  _517
REMARK  209  A    between atoms: _517  and  _518
REMARK  210  A    between atoms: _517  and  _520
REMARK  211  A    between atoms: _520  and  _521
REMARK  212  A    between atoms: _526  and  _528
REMARK  213  A    between atoms: _528  and  _529
REMARK  214  A    between atoms: _528  and  _531
REMARK  215  A    between atoms: _531  and  _532
REMARK  216  A    between atoms: _532  and  _533
REMARK  217  A    between atoms: _533  and  _534
REMARK  218  A    between atoms: _543  and  _545
REMARK  219  A    between atoms: _545  and  _546
REMARK  220  A    between atoms: _545  and  _548
REMARK  221  A    between atoms: _548  and  _549
REMARK  222  A    between atoms: _549  and  _550
REMARK  223  A    between atoms: _550  and  _551
REMARK  224  A    between atoms: _560  and  _562
REMARK  225  A    between atoms: _562  and  _563
REMARK  226  A    between atoms: _562  and  _565
REMARK  227  A    between atoms: _565  and  _566
REMARK  228  A    between atoms: _568  and  _570
REMARK  229  A    between atoms: _570  and  _571
REMARK  230  A    between atoms: _570  and  _573
REMARK  231  A    between atoms: _573  and  _574
REMARK  232  A    between atoms: _574  and  _575
REMARK  233  A    between atoms: _580  and  _582
REMARK  234  A    between atoms: _582  and  _583
REMARK  235  A    between atoms: _582  and  _585
REMARK  236  A    between atoms: _585  and  _586
REMARK  237  A    between atoms: _588  and  _590
REMARK  238  A    between atoms: _590  and  _591
REMARK  239  A    between atoms: _590  and  _593
REMARK  240  A    between atoms: _593  and  _594
REMARK  241  A    between atoms: _596  and  _598
REMARK  242  A    between atoms: _598  and  _599
REMARK  243  A    between atoms: _598  and  _601
REMARK  244  A    between atoms: _601  and  _602
REMARK  245  A    between atoms: _605  and  _607
REMARK  246  A    between atoms: _607  and  _608
REMARK  247  A    between atoms: _607  and  _610
REMARK  248  A    between atoms: _610  and  _611
REMARK  249  A    between atoms: _614  and  _616
REMARK  250  A    between atoms: _616  and  _617
REMARK  251  A    between atoms: _616  and  _619
REMARK  252  A    between atoms: _622  and  _624
REMARK  253  A    between atoms: _624  and  _625
REMARK  254  A    between atoms: _627  and  _629
REMARK  255  A    between atoms: _629  and  _630
REMARK  256  A    between atoms: _633  and  _635
REMARK  257  A    between atoms: _635  and  _636
REMARK  258  A    between atoms: _635  and  _638
REMARK                            x       y       z     vdW  Elec       q    Type
REMARK                         _______ _______ _______ _____ _____    ______ ____
ROOT
ATOM      1  O   HOH     1      13.195  12.531  21.754  0.00  0.00    +0.000 OA
ENDROOT
TORSDOF 0
REMARK  Name = ../refined-set-2016/3lpk/3lpk_pocket.pdb
REMARK  258 active torsions:
REMARK  status: ('A' for Active; 'I' for Inactive)
REMARK    1  A    between atoms: _1  and  _3
REMARK    2  A    between atoms: _3  and  _4
REMARK    3  A    between atoms: _3  and  _6
REMARK    4  A    between atoms: _6  and  _7
REMARK    5  A    between atoms: _7  and  _8
REMARK    6  A    between atoms: _8  and  _9
REMARK    7  A    between atoms: _9  and  _10
REMARK    8  A    between atoms: _14  and  _16
REMARK    9  A    between atoms: _16  and  _17
REMARK   10  A    between atoms: _16  and  _19
REMARK   11  A    between atoms: _19  and  _20
REMARK   12  A    between atoms: _22  and  _24
REMARK   13  A    between atoms: _24  and  _25
REMARK   14  A    between atoms: _27  and  _29
REMARK   15  A    between atoms: _29  and  _30
REMARK   16  A    between atoms: _29  and  _32
REMARK   17  A    between atoms: _32  and  _33
REMARK   18  A    between atoms: _33  and  _34
REMARK   19  A    between atoms: _39  and  _41
REMARK   20  A    between atoms: _41  and  _42
REMARK   21  A    between atoms: _44  and  _46
REMARK   22  A    between atoms: _46  and  _47
REMARK   23  A    between atoms: _46  and  _49
REMARK   24  A    between atoms: _49  and  _50
REMARK   25  A    between atoms: _55  and  _56
REMARK   26  A    between atoms: _58  and  _60
REMARK   27  A    between atoms: _60  and  _61
REMARK   28  A    between atoms: _60  and  _63
REMARK   29  A    between atoms: _63  and  _64
REMARK   30  A    between atoms: _67  and  _69
REMARK   31  A    between atoms: _69  and  _70
REMARK   32  A    between atoms: _69  and  _72
REMARK   33  A    between atoms: _75  and  _77
REMARK   34  A    between atoms: _77  and  _78
REMARK   35  A    between atoms: _77  and  _80
REMARK   36  A    between atoms: _80  and  _81
REMARK   37  A    between atoms: _84  and  _86
REMARK   38  A    between atoms: _86  and  _87
REMARK   39  A    between atoms: _86  and  _89
REMARK   40  A    between atoms: _89  and  _90
REMARK   41  A    between atoms: _93  and  _95
REMARK   42  A    between atoms: _95  and  _96
REMARK   43  A    between atoms: _98  and  _100
REMARK   44  A    between atoms: _100  and  _101
REMARK   45  A    between atoms: _100  and  _103
REMARK   46  A    between atoms: _103  and  _104
REMARK   47  A    between atoms: _106  and  _108
REMARK   48  A    between atoms: _108  and  _109
REMARK   49  A    between atoms: _108  and  _111
REMARK   50  A    between atoms: _111  and  _112
REMARK   51  A    between atoms: _114  and  _116
REMARK   52  A    between atoms: _116  and  _117
REMARK   53  A    between atoms: _116  and  _119
REMARK   54  A    between atoms: _119  and  _120
REMARK   55  A    between atoms: _125  and  _127
REMARK   56  A    between atoms: _127  and  _128
REMARK   57  A    between atoms: _127  and  _130
REMARK   58  A    between atoms: _130  and  _131
REMARK   59  A    between atoms: _136  and  _137
REMARK   60  A    between atoms: _139  and  _141
REMARK   61  A    between atoms: _141  and  _142
REMARK   62  A    between atoms: _141  and  _144
REMARK   63  A    between atoms: _148  and  _149
REMARK   64  A    between atoms: _154  and  _156
REMARK   65  A    between atoms: _156  and  _157
REMARK   66  A    between atoms: _156  and  _159
REMARK   67  A    between atoms: _159  and  _160
REMARK   68  A    between atoms: _165  and  _166
REMARK   69  A    between atoms: _168  and  _170
REMARK   70  A    between atoms: _170  and  _171
REMARK   71  A    between atoms: _170  and  _173
REMARK   72  A    between atoms: _173  and  _174
REMARK   73  A    between atoms: _177  and  _179
REMARK   74  A    between atoms: _179  and  _180
REMARK   75  A    between atoms: _179  and  _182
REMARK   76  A    between atoms: _182  and  _183
REMARK   77  A    between atoms: _183  and  _184
REMARK   78  A    between atoms: _189  and  _191
REMARK   79  A    between atoms: _191  and  _192
REMARK   80  A    between atoms: _194  and  _196
REMARK   81  A    between atoms: _196  and  _197
REMARK   82  A    between atoms: _196  and  _199
REMARK   83  A    between atoms: _199  and  _200
REMARK   84  A    between atoms: _200  and  _201
REMARK   85  A    between atoms: _201  and  _202
REMARK   86  A    between atoms: _202  and  _203
REMARK   87  A    between atoms: _207  and  _209
REMARK   88  A    between atoms: _209  and  _210
REMARK   89  A    between atoms: _209  and  _212
REMARK   90  A    between atoms: _212  and  _213
REMARK   91  A    between atoms: _223  and  _225
REMARK   92  A    between atoms: _225  and  _226
REMARK   93  A    between atoms: _225  and  _228
REMARK   94  A    between atoms: _228  and  _229
REMARK   95  A    between atoms: _232  and  _234
REMARK   96  A    between atoms: _234  and  _235
REMARK   97  A    between atoms: _234  and  _237
REMARK   98  A    between atoms: _237  and  _238
REMARK   99  A    between atoms: _238  and  _239
REMARK  100  A    between atoms: _239  and  _240
REMARK  101  A    between atoms: _240  and  _241
REMARK  102  A    between atoms: _245  and  _247
REMARK  103  A    between atoms: _247  and  _248
REMARK  104  A    between atoms: _247  and  _250
REMARK  105  A    between atoms: _250  and  _251
REMARK  106  A    between atoms: _257  and  _259
REMARK  107  A    between atoms: _259  and  _260
REMARK  108  A    between atoms: _259  and  _262
REMARK  109  A    between atoms: _262  and  _263
REMARK  110  A    between atoms: _269  and  _271
REMARK  111  A    between atoms: _271  and  _272
REMARK  112  A    between atoms: _271  and  _274
REMARK  113  A    between atoms: _274  and  _275
REMARK  114  A    between atoms: _278  and  _280
REMARK  115  A    between atoms: _280  and  _281
REMARK  116  A    between atoms: _280  and  _283
REMARK  117  A    between atoms: _283  and  _284
REMARK  118  A    between atoms: _286  and  _288
REMARK  119  A    between atoms: _288  and  _289
REMARK  120  A    between atoms: _288  and  _291
REMARK  121  A    between atoms: _291  and  _292
REMARK  122  A    between atoms: _302  and  _304
REMARK  123  A    between atoms: _304  and  _305
REMARK  124  A    between atoms: _307  and  _309
REMARK  125  A    between atoms: _309  and  _310
REMARK  126  A    between atoms: _309  and  _312
REMARK  127  A    between atoms: _312  and  _313
REMARK  128  A    between atoms: _316  and  _318
REMARK  129  A    between atoms: _318  and  _319
REMARK  130  A    between atoms: _318  and  _321
REMARK  131  A    between atoms: _321  and  _322
REMARK  132  A    between atoms: _325  and  _327
REMARK  133  A    between atoms: _327  and  _328
REMARK  134  A    between atoms: _330  and  _332
REMARK  135  A    between atoms: _332  and  _333
REMARK  136  A    between atoms: _332  and  _335
REMARK  137  A    between atoms: _335  and  _336
REMARK  138  A    between atoms: _339  and  _341
REMARK  139  A    between atoms: _341  and  _342
REMARK  140  A    between atoms: _345  and  _347
REMARK  141  A    between atoms: _347  and  _348
REMARK  142  A    between atoms: _347  and  _350
REMARK  143  A    between atoms: _350  and  _351
REMARK  144  A    between atoms: _356  and  _357
REMARK  145  A    between atoms: _359  and  _361
REMARK  146  A    between atoms: _361  and  _362
REMARK  147  A    between atoms: _361  and  _364
REMARK  148  A    between atoms: _364  and  _365
REMARK  149  A    between atoms: _365  and  _366
REMARK  150  A    between atoms: _369  and  _371
REMARK  151  A    between atoms: _371  and  _372
REMARK  152  A    between atoms: _371  and  _374
REMARK  153  A    between atoms: _374  and  _375
REMARK  154  A    between atoms: _378  and  _380
REMARK  155  A    between atoms: _380  and  _381
REMARK  156  A    between atoms: _384  and  _386
REMARK  157  A    between atoms: _386  and  _387
REMARK  158  A    between atoms: _386  and  _389
REMARK  159  A    between atoms: _389  and  _390
REMARK  160  A    between atoms: _390  and  _391
REMARK  161  A    between atoms: _391  and  _392
REMARK  162  A    between atoms: _401  and  _403
REMARK  163  A    between atoms: _403  and  _404
REMARK  164  A    between atoms: _403  and  _406
REMARK  165  A    between atoms: _406  and  _407
REMARK  166  A    between atoms: _417  and  _419
REMARK  167  A    between atoms: _419  and  _420
REMARK  168  A    between atoms: _419  and  _422
REMARK  169  A    between atoms: _422  and  _423
REMARK  170  A    between atoms: _428  and  _429
REMARK  171  A    between atoms: _431  and  _433
REMARK  172  A    between atoms: _433  and  _434
REMARK  173  A    between atoms: _433  and  _436
REMARK  174  A    between atoms: _436  and  _437
REMARK  175  A    between atoms: _442  and  _443
REMARK  176  A    between atoms: _445  and  _447
REMARK  177  A    between atoms: _447  and  _448
REMARK  178  A    between atoms: _447  and  _450
REMARK  179  A    between atoms: _450  and  _451
REMARK  180  A    between atoms: _451  and  _452
REMARK  181  A    between atoms: _452  and  _453
REMARK  182  A    between atoms: _453  and  _454
REMARK  183  A    between atoms: _458  and  _460
REMARK  184  A    between atoms: _460  and  _461
REMARK  185  A    between atoms: _460  and  _463
REMARK  186  A    between atoms: _463  and  _464
REMARK  187  A    between atoms: _467  and  _469
REMARK  188  A    between atoms: _469  and  _470
REMARK  189  A    between atoms: _469  and  _472
REMARK  190  A    between atoms: _475  and  _477
REMARK  191  A    between atoms: _477  and  _478
REMARK  192  A    between atoms: _477  and  _480
REMARK  193  A    between atoms: _480  and  _481
REMARK  194  A    between atoms: _484  and  _486
REMARK  195  A    between atoms: _486  and  _487
REMARK  196  A    between atoms: _486  and  _489
REMARK  197  A    between atoms: _489  and  _490
REMARK  198  A    between atoms: _492  and  _494
REMARK  199  A    between atoms: _494  and  _495
REMARK  200  A    between atoms: _497  and  _499
REMARK  201  A    between atoms: _499  and  _500
REMARK  202  A    between atoms: _499  and  _502
REMARK  203  A    between atoms: _502  and  _503
REMARK  204  A    between atoms: _506  and  _508
REMARK  205  A    between atoms: _508  and  _509
REMARK  206  A    between atoms: _508  and  _511
REMARK  207  A    between atoms: _511  and  _512
REMARK  208  A    between atoms: _515  and  _517
REMARK  209  A    between atoms: _517  and  _518
REMARK  210  A    between atoms: _517  and  _520
REMARK  211  A    between atoms: _520  and  _521
REMARK  212  A    between atoms: _526  and  _528
REMARK  213  A    between atoms: _528  and  _529
REMARK  214  A    between atoms: _528  and  _531
REMARK  215  A    between atoms: _531  and  _532
REMARK  216  A    between atoms: _532  and  _533
REMARK  217  A    between atoms: _533  and  _534
REMARK  218  A    between atoms: _543  and  _545
REMARK  219  A    between atoms: _545  and  _546
REMARK  220  A    between atoms: _545  and  _548
REMARK  221  A    between atoms: _548  and  _549
REMARK  222  A    between atoms: _549  and  _550
REMARK  223  A    between atoms: _550  and  _551
REMARK  224  A    between atoms: _560  and  _562
REMARK  225  A    between atoms: _562  and  _563
REMARK  226  A    between atoms: _562  and  _565
REMARK  227  A    between atoms: _565  and  _566
REMARK  228  A    between atoms: _568  and  _570
REMARK  229  A    between atoms: _570  and  _571
REMARK  230  A    between atoms: _570  and  _573
REMARK  231  A    between atoms: _573  and  _574
REMARK  232  A    between atoms: _574  and  _575
REMARK  233  A    between atoms: _580  and  _582
REMARK  234  A    between atoms: _582  and  _583
REMARK  235  A    between atoms: _582  and  _585
REMARK  236  A    between atoms: _585  and  _586
REMARK  237  A    between atoms: _588  and  _590
REMARK  238  A    between atoms: _590  and  _591
REMARK  239  A    between atoms: _590  and  _593
REMARK  240  A    between atoms: _593  and  _594
REMARK  241  A    between atoms: _596  and  _598
REMARK  242  A    between atoms: _598  and  _599
REMARK  243  A    between atoms: _598  and  _601
REMARK  244  A    between atoms: _601  and  _602
REMARK  245  A    between atoms: _605  and  _607
REMARK  246  A    between atoms: _607  and  _608
REMARK  247  A    between atoms: _607  and  _610
REMARK  248  A    between atoms: _610  and  _611
REMARK  249  A    between atoms: _614  and  _616
REMARK  250  A    between atoms: _616  and  _617
REMARK  251  A    between atoms: _616  and  _619
REMARK  252  A    between atoms: _622  and  _624
REMARK  253  A    between atoms: _624  and  _625
REMARK  254  A    between atoms: _627  and  _629
REMARK  255  A    between atoms: _629  and  _630
REMARK  256  A    between atoms: _633  and  _635
REMARK  257  A    between atoms: _635  and  _636
REMARK  258  A    between atoms: _635  and  _638
REMARK                            x       y       z     vdW  Elec       q    Type
REMARK                         _______ _______ _______ _____ _____    ______ ____
ROOT
ATOM      1  O   HOH     1      28.433  16.561  13.266  0.00  0.00    +0.000 OA
ENDROOT
TORSDOF 0
REMARK  Name = ../refined-set-2016/3lpk/3lpk_pocket.pdb
REMARK  258 active torsions:
REMARK  status: ('A' for Active; 'I' for Inactive)
REMARK    1  A    between atoms: _1  and  _3
REMARK    2  A    between atoms: _3  and  _4
REMARK    3  A    between atoms: _3  and  _6
REMARK    4  A    between atoms: _6  and  _7
REMARK    5  A    between atoms: _7  and  _8
REMARK    6  A    between atoms: _8  and  _9
REMARK    7  A    between atoms: _9  and  _10
REMARK    8  A    between atoms: _14  and  _16
REMARK    9  A    between atoms: _16  and  _17
REMARK   10  A    between atoms: _16  and  _19
REMARK   11  A    between atoms: _19  and  _20
REMARK   12  A    between atoms: _22  and  _24
REMARK   13  A    between atoms: _24  and  _25
REMARK   14  A    between atoms: _27  and  _29
REMARK   15  A    between atoms: _29  and  _30
REMARK   16  A    between atoms: _29  and  _32
REMARK   17  A    between atoms: _32  and  _33
REMARK   18  A    between atoms: _33  and  _34
REMARK   19  A    between atoms: _39  and  _41
REMARK   20  A    between atoms: _41  and  _42
REMARK   21  A    between atoms: _44  and  _46
REMARK   22  A    between atoms: _46  and  _47
REMARK   23  A    between atoms: _46  and  _49
REMARK   24  A    between atoms: _49  and  _50
REMARK   25  A    between atoms: _55  and  _56
REMARK   26  A    between atoms: _58  and  _60
REMARK   27  A    between atoms: _60  and  _61
REMARK   28  A    between atoms: _60  and  _63
REMARK   29  A    between atoms: _63  and  _64
REMARK   30  A    between atoms: _67  and  _69
REMARK   31  A    between atoms: _69  and  _70
REMARK   32  A    between atoms: _69  and  _72
REMARK   33  A    between atoms: _75  and  _77
REMARK   34  A    between atoms: _77  and  _78
REMARK   35  A    between atoms: _77  and  _80
REMARK   36  A    between atoms: _80  and  _81
REMARK   37  A    between atoms: _84  and  _86
REMARK   38  A    between atoms: _86  and  _87
REMARK   39  A    between atoms: _86  and  _89
REMARK   40  A    between atoms: _89  and  _90
REMARK   41  A    between atoms: _93  and  _95
REMARK   42  A    between atoms: _95  and  _96
REMARK   43  A    between atoms: _98  and  _100
REMARK   44  A    between atoms: _100  and  _101
REMARK   45  A    between atoms: _100  and  _103
REMARK   46  A    between atoms: _103  and  _104
REMARK   47  A    between atoms: _106  and  _108
REMARK   48  A    between atoms: _108  and  _109
REMARK   49  A    between atoms: _108  and  _111
REMARK   50  A    between atoms: _111  and  _112
REMARK   51  A    between atoms: _114  and  _116
REMARK   52  A    between atoms: _116  and  _117
REMARK   53  A    between atoms: _116  and  _119
REMARK   54  A    between atoms: _119  and  _120
REMARK   55  A    between atoms: _125  and  _127
REMARK   56  A    between atoms: _127  and  _128
REMARK   57  A    between atoms: _127  and  _130
REMARK   58  A    between atoms: _130  and  _131
REMARK   59  A    between atoms: _136  and  _137
REMARK   60  A    between atoms: _139  and  _141
REMARK   61  A    between atoms: _141  and  _142
REMARK   62  A    between atoms: _141  and  _144
REMARK   63  A    between atoms: _148  and  _149
REMARK   64  A    between atoms: _154  and  _156
REMARK   65  A    between atoms: _156  and  _157
REMARK   66  A    between atoms: _156  and  _159
REMARK   67  A    between atoms: _159  and  _160
REMARK   68  A    between atoms: _165  and  _166
REMARK   69  A    between atoms: _168  and  _170
REMARK   70  A    between atoms: _170  and  _171
REMARK   71  A    between atoms: _170  and  _173
REMARK   72  A    between atoms: _173  and  _174
REMARK   73  A    between atoms: _177  and  _179
REMARK   74  A    between atoms: _179  and  _180
REMARK   75  A    between atoms: _179  and  _182
REMARK   76  A    between atoms: _182  and  _183
REMARK   77  A    between atoms: _183  and  _184
REMARK   78  A    between atoms: _189  and  _191
REMARK   79  A    between atoms: _191  and  _192
REMARK   80  A    between atoms: _194  and  _196
REMARK   81  A    between atoms: _196  and  _197
REMARK   82  A    between atoms: _196  and  _199
REMARK   83  A    between atoms: _199  and  _200
REMARK   84  A    between atoms: _200  and  _201
REMARK   85  A    between atoms: _201  and  _202
REMARK   86  A    between atoms: _202  and  _203
REMARK   87  A    between atoms: _207  and  _209
REMARK   88  A    between atoms: _209  and  _210
REMARK   89  A    between atoms: _209  and  _212
REMARK   90  A    between atoms: _212  and  _213
REMARK   91  A    between atoms: _223  and  _225
REMARK   92  A    between atoms: _225  and  _226
REMARK   93  A    between atoms: _225  and  _228
REMARK   94  A    between atoms: _228  and  _229
REMARK   95  A    between atoms: _232  and  _234
REMARK   96  A    between atoms: _234  and  _235
REMARK   97  A    between atoms: _234  and  _237
REMARK   98  A    between atoms: _237  and  _238
REMARK   99  A    between atoms: _238  and  _239
REMARK  100  A    between atoms: _239  and  _240
REMARK  101  A    between atoms: _240  and  _241
REMARK  102  A    between atoms: _245  and  _247
REMARK  103  A    between atoms: _247  and  _248
REMARK  104  A    between atoms: _247  and  _250
REMARK  105  A    between atoms: _250  and  _251
REMARK  106  A    between atoms: _257  and  _259
REMARK  107  A    between atoms: _259  and  _260
REMARK  108  A    between atoms: _259  and  _262
REMARK  109  A    between atoms: _262  and  _263
REMARK  110  A    between atoms: _269  and  _271
REMARK  111  A    between atoms: _271  and  _272
REMARK  112  A    between atoms: _271  and  _274
REMARK  113  A    between atoms: _274  and  _275
REMARK  114  A    between atoms: _278  and  _280
REMARK  115  A    between atoms: _280  and  _281
REMARK  116  A    between atoms: _280  and  _283
REMARK  117  A    between atoms: _283  and  _284
REMARK  118  A    between atoms: _286  and  _288
REMARK  119  A    between atoms: _288  and  _289
REMARK  120  A    between atoms: _288  and  _291
REMARK  121  A    between atoms: _291  and  _292
REMARK  122  A    between atoms: _302  and  _304
REMARK  123  A    between atoms: _304  and  _305
REMARK  124  A    between atoms: _307  and  _309
REMARK  125  A    between atoms: _309  and  _310
REMARK  126  A    between atoms: _309  and  _312
REMARK  127  A    between atoms: _312  and  _313
REMARK  128  A    between atoms: _316  and  _318
REMARK  129  A    between atoms: _318  and  _319
REMARK  130  A    between atoms: _318  and  _321
REMARK  131  A    between atoms: _321  and  _322
REMARK  132  A    between atoms: _325  and  _327
REMARK  133  A    between atoms: _327  and  _328
REMARK  134  A    between atoms: _330  and  _332
REMARK  135  A    between atoms: _332  and  _333
REMARK  136  A    between atoms: _332  and  _335
REMARK  137  A    between atoms: _335  and  _336
REMARK  138  A    between atoms: _339  and  _341
REMARK  139  A    between atoms: _341  and  _342
REMARK  140  A    between atoms: _345  and  _347
REMARK  141  A    between atoms: _347  and  _348
REMARK  142  A    between atoms: _347  and  _350
REMARK  143  A    between atoms: _350  and  _351
REMARK  144  A    between atoms: _356  and  _357
REMARK  145  A    between atoms: _359  and  _361
REMARK  146  A    between atoms: _361  and  _362
REMARK  147  A    between atoms: _361  and  _364
REMARK  148  A    between atoms: _364  and  _365
REMARK  149  A    between atoms: _365  and  _366
REMARK  150  A    between atoms: _369  and  _371
REMARK  151  A    between atoms: _371  and  _372
REMARK  152  A    between atoms: _371  and  _374
REMARK  153  A    between atoms: _374  and  _375
REMARK  154  A    between atoms: _378  and  _380
REMARK  155  A    between atoms: _380  and  _381
REMARK  156  A    between atoms: _384  and  _386
REMARK  157  A    between atoms: _386  and  _387
REMARK  158  A    between atoms: _386  and  _389
REMARK  159  A    between atoms: _389  and  _390
REMARK  160  A    between atoms: _390  and  _391
REMARK  161  A    between atoms: _391  and  _392
REMARK  162  A    between atoms: _401  and  _403
REMARK  163  A    between atoms: _403  and  _404
REMARK  164  A    between atoms: _403  and  _406
REMARK  165  A    between atoms: _406  and  _407
REMARK  166  A    between atoms: _417  and  _419
REMARK  167  A    between atoms: _419  and  _420
REMARK  168  A    between atoms: _419  and  _422
REMARK  169  A    between atoms: _422  and  _423
REMARK  170  A    between atoms: _428  and  _429
REMARK  171  A    between atoms: _431  and  _433
REMARK  172  A    between atoms: _433  and  _434
REMARK  173  A    between atoms: _433  and  _436
REMARK  174  A    between atoms: _436  and  _437
REMARK  175  A    between atoms: _442  and  _443
REMARK  176  A    between atoms: _445  and  _447
REMARK  177  A    between atoms: _447  and  _448
REMARK  178  A    between atoms: _447  and  _450
REMARK  179  A    between atoms: _450  and  _451
REMARK  180  A    between atoms: _451  and  _452
REMARK  181  A    between atoms: _452  and  _453
REMARK  182  A    between atoms: _453  and  _454
REMARK  183  A    between atoms: _458  and  _460
REMARK  184  A    between atoms: _460  and  _461
REMARK  185  A    between atoms: _460  and  _463
REMARK  186  A    between atoms: _463  and  _464
REMARK  187  A    between atoms: _467  and  _469
REMARK  188  A    between atoms: _469  and  _470
REMARK  189  A    between atoms: _469  and  _472
REMARK  190  A    between atoms: _475  and  _477
REMARK  191  A    between atoms: _477  and  _478
REMARK  192  A    between atoms: _477  and  _480
REMARK  193  A    between atoms: _480  and  _481
REMARK  194  A    between atoms: _484  and  _486
REMARK  195  A    between atoms: _486  and  _487
REMARK  196  A    between atoms: _486  and  _489
REMARK  197  A    between atoms: _489  and  _490
REMARK  198  A    between atoms: _492  and  _494
REMARK  199  A    between atoms: _494  and  _495
REMARK  200  A    between atoms: _497  and  _499
REMARK  201  A    between atoms: _499  and  _500
REMARK  202  A    between atoms: _499  and  _502
REMARK  203  A    between atoms: _502  and  _503
REMARK  204  A    between atoms: _506  and  _508
REMARK  205  A    between atoms: _508  and  _509
REMARK  206  A    between atoms: _508  and  _511
REMARK  207  A    between atoms: _511  and  _512
REMARK  208  A    between atoms: _515  and  _517
REMARK  209  A    between atoms: _517  and  _518
REMARK  210  A    between atoms: _517  and  _520
REMARK  211  A    between atoms: _520  and  _521
REMARK  212  A    between atoms: _526  and  _528
REMARK  213  A    between atoms: _528  and  _529
REMARK  214  A    between atoms: _528  and  _531
REMARK  215  A    between atoms: _531  and  _532
REMARK  216  A    between atoms: _532  and  _533
REMARK  217  A    between atoms: _533  and  _534
REMARK  218  A    between atoms: _543  and  _545
REMARK  219  A    between atoms: _545  and  _546
REMARK  220  A    between atoms: _545  and  _548
REMARK  221  A    between atoms: _548  and  _549
REMARK  222  A    between atoms: _549  and  _550
REMARK  223  A    between atoms: _550  and  _551
REMARK  224  A    between atoms: _560  and  _562
REMARK  225  A    between atoms: _562  and  _563
REMARK  226  A    between atoms: _562  and  _565
REMARK  227  A    between atoms: _565  and  _566
REMARK  228  A    between atoms: _568  and  _570
REMARK  229  A    between atoms: _570  and  _571
REMARK  230  A    between atoms: _570  and  _573
REMARK  231  A    between atoms: _573  and  _574
REMARK  232  A    between atoms: _574  and  _575
REMARK  233  A    between atoms: _580  and  _582
REMARK  234  A    between atoms: _582  and  _583
REMARK  235  A    between atoms: _582  and  _585
REMARK  236  A    between atoms: _585  and  _586
REMARK  237  A    between atoms: _588  and  _590
REMARK  238  A    between atoms: _590  and  _591
REMARK  239  A    between atoms: _590  and  _593
REMARK  240  A    between atoms: _593  and  _594
REMARK  241  A    between atoms: _596  and  _598
REMARK  242  A    between atoms: _598  and  _599
REMARK  243  A    between atoms: _598  and  _601
REMARK  244  A    between atoms: _601  and  _602
REMARK  245  A    between atoms: _605  and  _607
REMARK  246  A    between atoms: _607  and  _608
REMARK  247  A    between atoms: _607  and  _610
REMARK  248  A    between atoms: _610  and  _611
REMARK  249  A    between atoms: _614  and  _616
REMARK  250  A    between atoms: _616  and  _617
REMARK  251  A    between atoms: _616  and  _619
REMARK  252  A    between atoms: _622  and  _624
REMARK  253  A    between atoms: _624  and  _625
REMARK  254  A    between atoms: _627  and  _629
REMARK  255  A    between atoms: _629  and  _630
REMARK  256  A    between atoms: _633  and  _635
REMARK  257  A    between atoms: _635  and  _636
REMARK  258  A    between atoms: _635  and  _638
REMARK                            x       y       z     vdW  Elec       q    Type
REMARK                         _______ _______ _______ _____ _____    ______ ____
ROOT
ATOM      1  O   HOH     1      25.666  18.510  22.543  0.00  0.00    +0.000 OA
ENDROOT
TORSDOF 0
REMARK  Name = ../refined-set-2016/3lpk/3lpk_pocket.pdb
REMARK  258 active torsions:
REMARK  status: ('A' for Active; 'I' for Inactive)
REMARK    1  A    between atoms: _1  and  _3
REMARK    2  A    between atoms: _3  and  _4
REMARK    3  A    between atoms: _3  and  _6
REMARK    4  A    between atoms: _6  and  _7
REMARK    5  A    between atoms: _7  and  _8
REMARK    6  A    between atoms: _8  and  _9
REMARK    7  A    between atoms: _9  and  _10
REMARK    8  A    between atoms: _14  and  _16
REMARK    9  A    between atoms: _16  and  _17
REMARK   10  A    between atoms: _16  and  _19
REMARK   11  A    between atoms: _19  and  _20
REMARK   12  A    between atoms: _22  and  _24
REMARK   13  A    between atoms: _24  and  _25
REMARK   14  A    between atoms: _27  and  _29
REMARK   15  A    between atoms: _29  and  _30
REMARK   16  A    between atoms: _29  and  _32
REMARK   17  A    between atoms: _32  and  _33
REMARK   18  A    between atoms: _33  and  _34
REMARK   19  A    between atoms: _39  and  _41
REMARK   20  A    between atoms: _41  and  _42
REMARK   21  A    between atoms: _44  and  _46
REMARK   22  A    between atoms: _46  and  _47
REMARK   23  A    between atoms: _46  and  _49
REMARK   24  A    between atoms: _49  and  _50
REMARK   25  A    between atoms: _55  and  _56
REMARK   26  A    between atoms: _58  and  _60
REMARK   27  A    between atoms: _60  and  _61
REMARK   28  A    between atoms: _60  and  _63
REMARK   29  A    between atoms: _63  and  _64
REMARK   30  A    between atoms: _67  and  _69
REMARK   31  A    between atoms: _69  and  _70
REMARK   32  A    between atoms: _69  and  _72
REMARK   33  A    between atoms: _75  and  _77
REMARK   34  A    between atoms: _77  and  _78
REMARK   35  A    between atoms: _77  and  _80
REMARK   36  A    between atoms: _80  and  _81
REMARK   37  A    between atoms: _84  and  _86
REMARK   38  A    between atoms: _86  and  _87
REMARK   39  A    between atoms: _86  and  _89
REMARK   40  A    between atoms: _89  and  _90
REMARK   41  A    between atoms: _93  and  _95
REMARK   42  A    between atoms: _95  and  _96
REMARK   43  A    between atoms: _98  and  _100
REMARK   44  A    between atoms: _100  and  _101
REMARK   45  A    between atoms: _100  and  _103
REMARK   46  A    between atoms: _103  and  _104
REMARK   47  A    between atoms: _106  and  _108
REMARK   48  A    between atoms: _108  and  _109
REMARK   49  A    between atoms: _108  and  _111
REMARK   50  A    between atoms: _111  and  _112
REMARK   51  A    between atoms: _114  and  _116
REMARK   52  A    between atoms: _116  and  _117
REMARK   53  A    between atoms: _116  and  _119
REMARK   54  A    between atoms: _119  and  _120
REMARK   55  A    between atoms: _125  and  _127
REMARK   56  A    between atoms: _127  and  _128
REMARK   57  A    between atoms: _127  and  _130
REMARK   58  A    between atoms: _130  and  _131
REMARK   59  A    between atoms: _136  and  _137
REMARK   60  A    between atoms: _139  and  _141
REMARK   61  A    between atoms: _141  and  _142
REMARK   62  A    between atoms: _141  and  _144
REMARK   63  A    between atoms: _148  and  _149
REMARK   64  A    between atoms: _154  and  _156
REMARK   65  A    between atoms: _156  and  _157
REMARK   66  A    between atoms: _156  and  _159
REMARK   67  A    between atoms: _159  and  _160
REMARK   68  A    between atoms: _165  and  _166
REMARK   69  A    between atoms: _168  and  _170
REMARK   70  A    between atoms: _170  and  _171
REMARK   71  A    between atoms: _170  and  _173
REMARK   72  A    between atoms: _173  and  _174
REMARK   73  A    between atoms: _177  and  _179
REMARK   74  A    between atoms: _179  and  _180
REMARK   75  A    between atoms: _179  and  _182
REMARK   76  A    between atoms: _182  and  _183
REMARK   77  A    between atoms: _183  and  _184
REMARK   78  A    between atoms: _189  and  _191
REMARK   79  A    between atoms: _191  and  _192
REMARK   80  A    between atoms: _194  and  _196
REMARK   81  A    between atoms: _196  and  _197
REMARK   82  A    between atoms: _196  and  _199
REMARK   83  A    between atoms: _199  and  _200
REMARK   84  A    between atoms: _200  and  _201
REMARK   85  A    between atoms: _201  and  _202
REMARK   86  A    between atoms: _202  and  _203
REMARK   87  A    between atoms: _207  and  _209
REMARK   88  A    between atoms: _209  and  _210
REMARK   89  A    between atoms: _209  and  _212
REMARK   90  A    between atoms: _212  and  _213
REMARK   91  A    between atoms: _223  and  _225
REMARK   92  A    between atoms: _225  and  _226
REMARK   93  A    between atoms: _225  and  _228
REMARK   94  A    between atoms: _228  and  _229
REMARK   95  A    between atoms: _232  and  _234
REMARK   96  A    between atoms: _234  and  _235
REMARK   97  A    between atoms: _234  and  _237
REMARK   98  A    between atoms: _237  and  _238
REMARK   99  A    between atoms: _238  and  _239
REMARK  100  A    between atoms: _239  and  _240
REMARK  101  A    between atoms: _240  and  _241
REMARK  102  A    between atoms: _245  and  _247
REMARK  103  A    between atoms: _247  and  _248
REMARK  104  A    between atoms: _247  and  _250
REMARK  105  A    between atoms: _250  and  _251
REMARK  106  A    between atoms: _257  and  _259
REMARK  107  A    between atoms: _259  and  _260
REMARK  108  A    between atoms: _259  and  _262
REMARK  109  A    between atoms: _262  and  _263
REMARK  110  A    between atoms: _269  and  _271
REMARK  111  A    between atoms: _271  and  _272
REMARK  112  A    between atoms: _271  and  _274
REMARK  113  A    between atoms: _274  and  _275
REMARK  114  A    between atoms: _278  and  _280
REMARK  115  A    between atoms: _280  and  _281
REMARK  116  A    between atoms: _280  and  _283
REMARK  117  A    between atoms: _283  and  _284
REMARK  118  A    between atoms: _286  and  _288
REMARK  119  A    between atoms: _288  and  _289
REMARK  120  A    between atoms: _288  and  _291
REMARK  121  A    between atoms: _291  and  _292
REMARK  122  A    between atoms: _302  and  _304
REMARK  123  A    between atoms: _304  and  _305
REMARK  124  A    between atoms: _307  and  _309
REMARK  125  A    between atoms: _309  and  _310
REMARK  126  A    between atoms: _309  and  _312
REMARK  127  A    between atoms: _312  and  _313
REMARK  128  A    between atoms: _316  and  _318
REMARK  129  A    between atoms: _318  and  _319
REMARK  130  A    between atoms: _318  and  _321
REMARK  131  A    between atoms: _321  and  _322
REMARK  132  A    between atoms: _325  and  _327
REMARK  133  A    between atoms: _327  and  _328
REMARK  134  A    between atoms: _330  and  _332
REMARK  135  A    between atoms: _332  and  _333
REMARK  136  A    between atoms: _332  and  _335
REMARK  137  A    between atoms: _335  and  _336
REMARK  138  A    between atoms: _339  and  _341
REMARK  139  A    between atoms: _341  and  _342
REMARK  140  A    between atoms: _345  and  _347
REMARK  141  A    between atoms: _347  and  _348
REMARK  142  A    between atoms: _347  and  _350
REMARK  143  A    between atoms: _350  and  _351
REMARK  144  A    between atoms: _356  and  _357
REMARK  145  A    between atoms: _359  and  _361
REMARK  146  A    between atoms: _361  and  _362
REMARK  147  A    between atoms: _361  and  _364
REMARK  148  A    between atoms: _364  and  _365
REMARK  149  A    between atoms: _365  and  _366
REMARK  150  A    between atoms: _369  and  _371
REMARK  151  A    between atoms: _371  and  _372
REMARK  152  A    between atoms: _371  and  _374
REMARK  153  A    between atoms: _374  and  _375
REMARK  154  A    between atoms: _378  and  _380
REMARK  155  A    between atoms: _380  and  _381
REMARK  156  A    between atoms: _384  and  _386
REMARK  157  A    between atoms: _386  and  _387
REMARK  158  A    between atoms: _386  and  _389
REMARK  159  A    between atoms: _389  and  _390
REMARK  160  A    between atoms: _390  and  _391
REMARK  161  A    between atoms: _391  and  _392
REMARK  162  A    between atoms: _401  and  _403
REMARK  163  A    between atoms: _403  and  _404
REMARK  164  A    between atoms: _403  and  _406
REMARK  165  A    between atoms: _406  and  _407
REMARK  166  A    between atoms: _417  and  _419
REMARK  167  A    between atoms: _419  and  _420
REMARK  168  A    between atoms: _419  and  _422
REMARK  169  A    between atoms: _422  and  _423
REMARK  170  A    between atoms: _428  and  _429
REMARK  171  A    between atoms: _431  and  _433
REMARK  172  A    between atoms: _433  and  _434
REMARK  173  A    between atoms: _433  and  _436
REMARK  174  A    between atoms: _436  and  _437
REMARK  175  A    between atoms: _442  and  _443
REMARK  176  A    between atoms: _445  and  _447
REMARK  177  A    between atoms: _447  and  _448
REMARK  178  A    between atoms: _447  and  _450
REMARK  179  A    between atoms: _450  and  _451
REMARK  180  A    between atoms: _451  and  _452
REMARK  181  A    between atoms: _452  and  _453
REMARK  182  A    between atoms: _453  and  _454
REMARK  183  A    between atoms: _458  and  _460
REMARK  184  A    between atoms: _460  and  _461
REMARK  185  A    between atoms: _460  and  _463
REMARK  186  A    between atoms: _463  and  _464
REMARK  187  A    between atoms: _467  and  _469
REMARK  188  A    between atoms: _469  and  _470
REMARK  189  A    between atoms: _469  and  _472
REMARK  190  A    between atoms: _475  and  _477
REMARK  191  A    between atoms: _477  and  _478
REMARK  192  A    between atoms: _477  and  _480
REMARK  193  A    between atoms: _480  and  _481
REMARK  194  A    between atoms: _484  and  _486
REMARK  195  A    between atoms: _486  and  _487
REMARK  196  A    between atoms: _486  and  _489
REMARK  197  A    between atoms: _489  and  _490
REMARK  198  A    between atoms: _492  and  _494
REMARK  199  A    between atoms: _494  and  _495
REMARK  200  A    between atoms: _497  and  _499
REMARK  201  A    between atoms: _499  and  _500
REMARK  202  A    between atoms: _499  and  _502
REMARK  203  A    between atoms: _502  and  _503
REMARK  204  A    between atoms: _506  and  _508
REMARK  205  A    between atoms: _508  and  _509
REMARK  206  A    between atoms: _508  and  _511
REMARK  207  A    between atoms: _511  and  _512
REMARK  208  A    between atoms: _515  and  _517
REMARK  209  A    between atoms: _517  and  _518
REMARK  210  A    between atoms: _517  and  _520
REMARK  211  A    between atoms: _520  and  _521
REMARK  212  A    between atoms: _526  and  _528
REMARK  213  A    between atoms: _528  and  _529
REMARK  214  A    between atoms: _528  and  _531
REMARK  215  A    between atoms: _531  and  _532
REMARK  216  A    between atoms: _532  and  _533
REMARK  217  A    between atoms: _533  and  _534
REMARK  218  A    between atoms: _543  and  _545
REMARK  219  A    between atoms: _545  and  _546
REMARK  220  A    between atoms: _545  and  _548
REMARK  221  A    between atoms: _548  and  _549
REMARK  222  A    between atoms: _549  and  _550
REMARK  223  A    between atoms: _550  and  _551
REMARK  224  A    between atoms: _560  and  _562
REMARK  225  A    between atoms: _562  and  _563
REMARK  226  A    between atoms: _562  and  _565
REMARK  227  A    between atoms: _565  and  _566
REMARK  228  A    between atoms: _568  and  _570
REMARK  229  A    between atoms: _570  and  _571
REMARK  230  A    between atoms: _570  and  _573
REMARK  231  A    between atoms: _573  and  _574
REMARK  232  A    between atoms: _574  and  _575
REMARK  233  A    between atoms: _580  and  _582
REMARK  234  A    between atoms: _582  and  _583
REMARK  235  A    between atoms: _582  and  _585
REMARK  236  A    between atoms: _585  and  _586
REMARK  237  A    between atoms: _588  and  _590
REMARK  238  A    between atoms: _590  and  _591
REMARK  239  A    between atoms: _590  and  _593
REMARK  240  A    between atoms: _593  and  _594
REMARK  241  A    between atoms: _596  and  _598
REMARK  242  A    between atoms: _598  and  _599
REMARK  243  A    between atoms: _598  and  _601
REMARK  244  A    between atoms: _601  and  _602
REMARK  245  A    between atoms: _605  and  _607
REMARK  246  A    between atoms: _607  and  _608
REMARK  247  A    between atoms: _607  and  _610
REMARK  248  A    between atoms: _610  and  _611
REMARK  249  A    between atoms: _614  and  _616
REMARK  250  A    between atoms: _616  and  _617
REMARK  251  A    between atoms: _616  and  _619
REMARK  252  A    between atoms: _622  and  _624
REMARK  253  A    between atoms: _624  and  _625
REMARK  254  A    between atoms: _627  and  _629
REMARK  255  A    between atoms: _629  and  _630
REMARK  256  A    between atoms: _633  and  _635
REMARK  257  A    between atoms: _635  and  _636
REMARK  258  A    between atoms: _635  and  _638
REMARK                            x       y       z     vdW  Elec       q    Type
REMARK                         _______ _______ _______ _____ _____    ______ ____
ROOT
ATOM      1  O   HOH     1      35.073  16.116  26.639  0.00  0.00    +0.000 OA
ENDROOT
TORSDOF 0
REMARK  Name = ../refined-set-2016/3lpk/3lpk_pocket.pdb
REMARK  258 active torsions:
REMARK  status: ('A' for Active; 'I' for Inactive)
REMARK    1  A    between atoms: _1  and  _3
REMARK    2  A    between atoms: _3  and  _4
REMARK    3  A    between atoms: _3  and  _6
REMARK    4  A    between atoms: _6  and  _7
REMARK    5  A    between atoms: _7  and  _8
REMARK    6  A    between atoms: _8  and  _9
REMARK    7  A    between atoms: _9  and  _10
REMARK    8  A    between atoms: _14  and  _16
REMARK    9  A    between atoms: _16  and  _17
REMARK   10  A    between atoms: _16  and  _19
REMARK   11  A    between atoms: _19  and  _20
REMARK   12  A    between atoms: _22  and  _24
REMARK   13  A    between atoms: _24  and  _25
REMARK   14  A    between atoms: _27  and  _29
REMARK   15  A    between atoms: _29  and  _30
REMARK   16  A    between atoms: _29  and  _32
REMARK   17  A    between atoms: _32  and  _33
REMARK   18  A    between atoms: _33  and  _34
REMARK   19  A    between atoms: _39  and  _41
REMARK   20  A    between atoms: _41  and  _42
REMARK   21  A    between atoms: _44  and  _46
REMARK   22  A    between atoms: _46  and  _47
REMARK   23  A    between atoms: _46  and  _49
REMARK   24  A    between atoms: _49  and  _50
REMARK   25  A    between atoms: _55  and  _56
REMARK   26  A    between atoms: _58  and  _60
REMARK   27  A    between atoms: _60  and  _61
REMARK   28  A    between atoms: _60  and  _63
REMARK   29  A    between atoms: _63  and  _64
REMARK   30  A    between atoms: _67  and  _69
REMARK   31  A    between atoms: _69  and  _70
REMARK   32  A    between atoms: _69  and  _72
REMARK   33  A    between atoms: _75  and  _77
REMARK   34  A    between atoms: _77  and  _78
REMARK   35  A    between atoms: _77  and  _80
REMARK   36  A    between atoms: _80  and  _81
REMARK   37  A    between atoms: _84  and  _86
REMARK   38  A    between atoms: _86  and  _87
REMARK   39  A    between atoms: _86  and  _89
REMARK   40  A    between atoms: _89  and  _90
REMARK   41  A    between atoms: _93  and  _95
REMARK   42  A    between atoms: _95  and  _96
REMARK   43  A    between atoms: _98  and  _100
REMARK   44  A    between atoms: _100  and  _101
REMARK   45  A    between atoms: _100  and  _103
REMARK   46  A    between atoms: _103  and  _104
REMARK   47  A    between atoms: _106  and  _108
REMARK   48  A    between atoms: _108  and  _109
REMARK   49  A    between atoms: _108  and  _111
REMARK   50  A    between atoms: _111  and  _112
REMARK   51  A    between atoms: _114  and  _116
REMARK   52  A    between atoms: _116  and  _117
REMARK   53  A    between atoms: _116  and  _119
REMARK   54  A    between atoms: _119  and  _120
REMARK   55  A    between atoms: _125  and  _127
REMARK   56  A    between atoms: _127  and  _128
REMARK   57  A    between atoms: _127  and  _130
REMARK   58  A    between atoms: _130  and  _131
REMARK   59  A    between atoms: _136  and  _137
REMARK   60  A    between atoms: _139  and  _141
REMARK   61  A    between atoms: _141  and  _142
REMARK   62  A    between atoms: _141  and  _144
REMARK   63  A    between atoms: _148  and  _149
REMARK   64  A    between atoms: _154  and  _156
REMARK   65  A    between atoms: _156  and  _157
REMARK   66  A    between atoms: _156  and  _159
REMARK   67  A    between atoms: _159  and  _160
REMARK   68  A    between atoms: _165  and  _166
REMARK   69  A    between atoms: _168  and  _170
REMARK   70  A    between atoms: _170  and  _171
REMARK   71  A    between atoms: _170  and  _173
REMARK   72  A    between atoms: _173  and  _174
REMARK   73  A    between atoms: _177  and  _179
REMARK   74  A    between atoms: _179  and  _180
REMARK   75  A    between atoms: _179  and  _182
REMARK   76  A    between atoms: _182  and  _183
REMARK   77  A    between atoms: _183  and  _184
REMARK   78  A    between atoms: _189  and  _191
REMARK   79  A    between atoms: _191  and  _192
REMARK   80  A    between atoms: _194  and  _196
REMARK   81  A    between atoms: _196  and  _197
REMARK   82  A    between atoms: _196  and  _199
REMARK   83  A    between atoms: _199  and  _200
REMARK   84  A    between atoms: _200  and  _201
REMARK   85  A    between atoms: _201  and  _202
REMARK   86  A    between atoms: _202  and  _203
REMARK   87  A    between atoms: _207  and  _209
REMARK   88  A    between atoms: _209  and  _210
REMARK   89  A    between atoms: _209  and  _212
REMARK   90  A    between atoms: _212  and  _213
REMARK   91  A    between atoms: _223  and  _225
REMARK   92  A    between atoms: _225  and  _226
REMARK   93  A    between atoms: _225  and  _228
REMARK   94  A    between atoms: _228  and  _229
REMARK   95  A    between atoms: _232  and  _234
REMARK   96  A    between atoms: _234  and  _235
REMARK   97  A    between atoms: _234  and  _237
REMARK   98  A    between atoms: _237  and  _238
REMARK   99  A    between atoms: _238  and  _239
REMARK  100  A    between atoms: _239  and  _240
REMARK  101  A    between atoms: _240  and  _241
REMARK  102  A    between atoms: _245  and  _247
REMARK  103  A    between atoms: _247  and  _248
REMARK  104  A    between atoms: _247  and  _250
REMARK  105  A    between atoms: _250  and  _251
REMARK  106  A    between atoms: _257  and  _259
REMARK  107  A    between atoms: _259  and  _260
REMARK  108  A    between atoms: _259  and  _262
REMARK  109  A    between atoms: _262  and  _263
REMARK  110  A    between atoms: _269  and  _271
REMARK  111  A    between atoms: _271  and  _272
REMARK  112  A    between atoms: _271  and  _274
REMARK  113  A    between atoms: _274  and  _275
REMARK  114  A    between atoms: _278  and  _280
REMARK  115  A    between atoms: _280  and  _281
REMARK  116  A    between atoms: _280  and  _283
REMARK  117  A    between atoms: _283  and  _284
REMARK  118  A    between atoms: _286  and  _288
REMARK  119  A    between atoms: _288  and  _289
REMARK  120  A    between atoms: _288  and  _291
REMARK  121  A    between atoms: _291  and  _292
REMARK  122  A    between atoms: _302  and  _304
REMARK  123  A    between atoms: _304  and  _305
REMARK  124  A    between atoms: _307  and  _309
REMARK  125  A    between atoms: _309  and  _310
REMARK  126  A    between atoms: _309  and  _312
REMARK  127  A    between atoms: _312  and  _313
REMARK  128  A    between atoms: _316  and  _318
REMARK  129  A    between atoms: _318  and  _319
REMARK  130  A    between atoms: _318  and  _321
REMARK  131  A    between atoms: _321  and  _322
REMARK  132  A    between atoms: _325  and  _327
REMARK  133  A    between atoms: _327  and  _328
REMARK  134  A    between atoms: _330  and  _332
REMARK  135  A    between atoms: _332  and  _333
REMARK  136  A    between atoms: _332  and  _335
REMARK  137  A    between atoms: _335  and  _336
REMARK  138  A    between atoms: _339  and  _341
REMARK  139  A    between atoms: _341  and  _342
REMARK  140  A    between atoms: _345  and  _347
REMARK  141  A    between atoms: _347  and  _348
REMARK  142  A    between atoms: _347  and  _350
REMARK  143  A    between atoms: _350  and  _351
REMARK  144  A    between atoms: _356  and  _357
REMARK  145  A    between atoms: _359  and  _361
REMARK  146  A    between atoms: _361  and  _362
REMARK  147  A    between atoms: _361  and  _364
REMARK  148  A    between atoms: _364  and  _365
REMARK  149  A    between atoms: _365  and  _366
REMARK  150  A    between atoms: _369  and  _371
REMARK  151  A    between atoms: _371  and  _372
REMARK  152  A    between atoms: _371  and  _374
REMARK  153  A    between atoms: _374  and  _375
REMARK  154  A    between atoms: _378  and  _380
REMARK  155  A    between atoms: _380  and  _381
REMARK  156  A    between atoms: _384  and  _386
REMARK  157  A    between atoms: _386  and  _387
REMARK  158  A    between atoms: _386  and  _389
REMARK  159  A    between atoms: _389  and  _390
REMARK  160  A    between atoms: _390  and  _391
REMARK  161  A    between atoms: _391  and  _392
REMARK  162  A    between atoms: _401  and  _403
REMARK  163  A    between atoms: _403  and  _404
REMARK  164  A    between atoms: _403  and  _406
REMARK  165  A    between atoms: _406  and  _407
REMARK  166  A    between atoms: _417  and  _419
REMARK  167  A    between atoms: _419  and  _420
REMARK  168  A    between atoms: _419  and  _422
REMARK  169  A    between atoms: _422  and  _423
REMARK  170  A    between atoms: _428  and  _429
REMARK  171  A    between atoms: _431  and  _433
REMARK  172  A    between atoms: _433  and  _434
REMARK  173  A    between atoms: _433  and  _436
REMARK  174  A    between atoms: _436  and  _437
REMARK  175  A    between atoms: _442  and  _443
REMARK  176  A    between atoms: _445  and  _447
REMARK  177  A    between atoms: _447  and  _448
REMARK  178  A    between atoms: _447  and  _450
REMARK  179  A    between atoms: _450  and  _451
REMARK  180  A    between atoms: _451  and  _452
REMARK  181  A    between atoms: _452  and  _453
REMARK  182  A    between atoms: _453  and  _454
REMARK  183  A    between atoms: _458  and  _460
REMARK  184  A    between atoms: _460  and  _461
REMARK  185  A    between atoms: _460  and  _463
REMARK  186  A    between atoms: _463  and  _464
REMARK  187  A    between atoms: _467  and  _469
REMARK  188  A    between atoms: _469  and  _470
REMARK  189  A    between atoms: _469  and  _472
REMARK  190  A    between atoms: _475  and  _477
REMARK  191  A    between atoms: _477  and  _478
REMARK  192  A    between atoms: _477  and  _480
REMARK  193  A    between atoms: _480  and  _481
REMARK  194  A    between atoms: _484  and  _486
REMARK  195  A    between atoms: _486  and  _487
REMARK  196  A    between atoms: _486  and  _489
REMARK  197  A    between atoms: _489  and  _490
REMARK  198  A    between atoms: _492  and  _494
REMARK  199  A    between atoms: _494  and  _495
REMARK  200  A    between atoms: _497  and  _499
REMARK  201  A    between atoms: _499  and  _500
REMARK  202  A    between atoms: _499  and  _502
REMARK  203  A    between atoms: _502  and  _503
REMARK  204  A    between atoms: _506  and  _508
REMARK  205  A    between atoms: _508  and  _509
REMARK  206  A    between atoms: _508  and  _511
REMARK  207  A    between atoms: _511  and  _512
REMARK  208  A    between atoms: _515  and  _517
REMARK  209  A    between atoms: _517  and  _518
REMARK  210  A    between atoms: _517  and  _520
REMARK  211  A    between atoms: _520  and  _521
REMARK  212  A    between atoms: _526  and  _528
REMARK  213  A    between atoms: _528  and  _529
REMARK  214  A    between atoms: _528  and  _531
REMARK  215  A    between atoms: _531  and  _532
REMARK  216  A    between atoms: _532  and  _533
REMARK  217  A    between atoms: _533  and  _534
REMARK  218  A    between atoms: _543  and  _545
REMARK  219  A    between atoms: _545  and  _546
REMARK  220  A    between atoms: _545  and  _548
REMARK  221  A    between atoms: _548  and  _549
REMARK  222  A    between atoms: _549  and  _550
REMARK  223  A    between atoms: _550  and  _551
REMARK  224  A    between atoms: _560  and  _562
REMARK  225  A    between atoms: _562  and  _563
REMARK  226  A    between atoms: _562  and  _565
REMARK  227  A    between atoms: _565  and  _566
REMARK  228  A    between atoms: _568  and  _570
REMARK  229  A    between atoms: _570  and  _571
REMARK  230  A    between atoms: _570  and  _573
REMARK  231  A    between atoms: _573  and  _574
REMARK  232  A    between atoms: _574  and  _575
REMARK  233  A    between atoms: _580  and  _582
REMARK  234  A    between atoms: _582  and  _583
REMARK  235  A    between atoms: _582  and  _585
REMARK  236  A    between atoms: _585  and  _586
REMARK  237  A    between atoms: _588  and  _590
REMARK  238  A    between atoms: _590  and  _591
REMARK  239  A    between atoms: _590  and  _593
REMARK  240  A    between atoms: _593  and  _594
REMARK  241  A    between atoms: _596  and  _598
REMARK  242  A    between atoms: _598  and  _599
REMARK  243  A    between atoms: _598  and  _601
REMARK  244  A    between atoms: _601  and  _602
REMARK  245  A    between atoms: _605  and  _607
REMARK  246  A    between atoms: _607  and  _608
REMARK  247  A    between atoms: _607  and  _610
REMARK  248  A    between atoms: _610  and  _611
REMARK  249  A    between atoms: _614  and  _616
REMARK  250  A    between atoms: _616  and  _617
REMARK  251  A    between atoms: _616  and  _619
REMARK  252  A    between atoms: _622  and  _624
REMARK  253  A    between atoms: _624  and  _625
REMARK  254  A    between atoms: _627  and  _629
REMARK  255  A    between atoms: _629  and  _630
REMARK  256  A    between atoms: _633  and  _635
REMARK  257  A    between atoms: _635  and  _636
REMARK  258  A    between atoms: _635  and  _638
REMARK                            x       y       z     vdW  Elec       q    Type
REMARK                         _______ _______ _______ _____ _____    ______ ____
ROOT
ATOM      1  O   HOH     1      27.524  18.974  28.991  0.00  0.00    +0.000 OA
ENDROOT
TORSDOF 0
REMARK  Name = ../refined-set-2016/3lpk/3lpk_pocket.pdb
REMARK  258 active torsions:
REMARK  status: ('A' for Active; 'I' for Inactive)
REMARK    1  A    between atoms: _1  and  _3
REMARK    2  A    between atoms: _3  and  _4
REMARK    3  A    between atoms: _3  and  _6
REMARK    4  A    between atoms: _6  and  _7
REMARK    5  A    between atoms: _7  and  _8
REMARK    6  A    between atoms: _8  and  _9
REMARK    7  A    between atoms: _9  and  _10
REMARK    8  A    between atoms: _14  and  _16
REMARK    9  A    between atoms: _16  and  _17
REMARK   10  A    between atoms: _16  and  _19
REMARK   11  A    between atoms: _19  and  _20
REMARK   12  A    between atoms: _22  and  _24
REMARK   13  A    between atoms: _24  and  _25
REMARK   14  A    between atoms: _27  and  _29
REMARK   15  A    between atoms: _29  and  _30
REMARK   16  A    between atoms: _29  and  _32
REMARK   17  A    between atoms: _32  and  _33
REMARK   18  A    between atoms: _33  and  _34
REMARK   19  A    between atoms: _39  and  _41
REMARK   20  A    between atoms: _41  and  _42
REMARK   21  A    between atoms: _44  and  _46
REMARK   22  A    between atoms: _46  and  _47
REMARK   23  A    between atoms: _46  and  _49
REMARK   24  A    between atoms: _49  and  _50
REMARK   25  A    between atoms: _55  and  _56
REMARK   26  A    between atoms: _58  and  _60
REMARK   27  A    between atoms: _60  and  _61
REMARK   28  A    between atoms: _60  and  _63
REMARK   29  A    between atoms: _63  and  _64
REMARK   30  A    between atoms: _67  and  _69
REMARK   31  A    between atoms: _69  and  _70
REMARK   32  A    between atoms: _69  and  _72
REMARK   33  A    between atoms: _75  and  _77
REMARK   34  A    between atoms: _77  and  _78
REMARK   35  A    between atoms: _77  and  _80
REMARK   36  A    between atoms: _80  and  _81
REMARK   37  A    between atoms: _84  and  _86
REMARK   38  A    between atoms: _86  and  _87
REMARK   39  A    between atoms: _86  and  _89
REMARK   40  A    between atoms: _89  and  _90
REMARK   41  A    between atoms: _93  and  _95
REMARK   42  A    between atoms: _95  and  _96
REMARK   43  A    between atoms: _98  and  _100
REMARK   44  A    between atoms: _100  and  _101
REMARK   45  A    between atoms: _100  and  _103
REMARK   46  A    between atoms: _103  and  _104
REMARK   47  A    between atoms: _106  and  _108
REMARK   48  A    between atoms: _108  and  _109
REMARK   49  A    between atoms: _108  and  _111
REMARK   50  A    between atoms: _111  and  _112
REMARK   51  A    between atoms: _114  and  _116
REMARK   52  A    between atoms: _116  and  _117
REMARK   53  A    between atoms: _116  and  _119
REMARK   54  A    between atoms: _119  and  _120
REMARK   55  A    between atoms: _125  and  _127
REMARK   56  A    between atoms: _127  and  _128
REMARK   57  A    between atoms: _127  and  _130
REMARK   58  A    between atoms: _130  and  _131
REMARK   59  A    between atoms: _136  and  _137
REMARK   60  A    between atoms: _139  and  _141
REMARK   61  A    between atoms: _141  and  _142
REMARK   62  A    between atoms: _141  and  _144
REMARK   63  A    between atoms: _148  and  _149
REMARK   64  A    between atoms: _154  and  _156
REMARK   65  A    between atoms: _156  and  _157
REMARK   66  A    between atoms: _156  and  _159
REMARK   67  A    between atoms: _159  and  _160
REMARK   68  A    between atoms: _165  and  _166
REMARK   69  A    between atoms: _168  and  _170
REMARK   70  A    between atoms: _170  and  _171
REMARK   71  A    between atoms: _170  and  _173
REMARK   72  A    between atoms: _173  and  _174
REMARK   73  A    between atoms: _177  and  _179
REMARK   74  A    between atoms: _179  and  _180
REMARK   75  A    between atoms: _179  and  _182
REMARK   76  A    between atoms: _182  and  _183
REMARK   77  A    between atoms: _183  and  _184
REMARK   78  A    between atoms: _189  and  _191
REMARK   79  A    between atoms: _191  and  _192
REMARK   80  A    between atoms: _194  and  _196
REMARK   81  A    between atoms: _196  and  _197
REMARK   82  A    between atoms: _196  and  _199
REMARK   83  A    between atoms: _199  and  _200
REMARK   84  A    between atoms: _200  and  _201
REMARK   85  A    between atoms: _201  and  _202
REMARK   86  A    between atoms: _202  and  _203
REMARK   87  A    between atoms: _207  and  _209
REMARK   88  A    between atoms: _209  and  _210
REMARK   89  A    between atoms: _209  and  _212
REMARK   90  A    between atoms: _212  and  _213
REMARK   91  A    between atoms: _223  and  _225
REMARK   92  A    between atoms: _225  and  _226
REMARK   93  A    between atoms: _225  and  _228
REMARK   94  A    between atoms: _228  and  _229
REMARK   95  A    between atoms: _232  and  _234
REMARK   96  A    between atoms: _234  and  _235
REMARK   97  A    between atoms: _234  and  _237
REMARK   98  A    between atoms: _237  and  _238
REMARK   99  A    between atoms: _238  and  _239
REMARK  100  A    between atoms: _239  and  _240
REMARK  101  A    between atoms: _240  and  _241
REMARK  102  A    between atoms: _245  and  _247
REMARK  103  A    between atoms: _247  and  _248
REMARK  104  A    between atoms: _247  and  _250
REMARK  105  A    between atoms: _250  and  _251
REMARK  106  A    between atoms: _257  and  _259
REMARK  107  A    between atoms: _259  and  _260
REMARK  108  A    between atoms: _259  and  _262
REMARK  109  A    between atoms: _262  and  _263
REMARK  110  A    between atoms: _269  and  _271
REMARK  111  A    between atoms: _271  and  _272
REMARK  112  A    between atoms: _271  and  _274
REMARK  113  A    between atoms: _274  and  _275
REMARK  114  A    between atoms: _278  and  _280
REMARK  115  A    between atoms: _280  and  _281
REMARK  116  A    between atoms: _280  and  _283
REMARK  117  A    between atoms: _283  and  _284
REMARK  118  A    between atoms: _286  and  _288
REMARK  119  A    between atoms: _288  and  _289
REMARK  120  A    between atoms: _288  and  _291
REMARK  121  A    between atoms: _291  and  _292
REMARK  122  A    between atoms: _302  and  _304
REMARK  123  A    between atoms: _304  and  _305
REMARK  124  A    between atoms: _307  and  _309
REMARK  125  A    between atoms: _309  and  _310
REMARK  126  A    between atoms: _309  and  _312
REMARK  127  A    between atoms: _312  and  _313
REMARK  128  A    between atoms: _316  and  _318
REMARK  129  A    between atoms: _318  and  _319
REMARK  130  A    between atoms: _318  and  _321
REMARK  131  A    between atoms: _321  and  _322
REMARK  132  A    between atoms: _325  and  _327
REMARK  133  A    between atoms: _327  and  _328
REMARK  134  A    between atoms: _330  and  _332
REMARK  135  A    between atoms: _332  and  _333
REMARK  136  A    between atoms: _332  and  _335
REMARK  137  A    between atoms: _335  and  _336
REMARK  138  A    between atoms: _339  and  _341
REMARK  139  A    between atoms: _341  and  _342
REMARK  140  A    between atoms: _345  and  _347
REMARK  141  A    between atoms: _347  and  _348
REMARK  142  A    between atoms: _347  and  _350
REMARK  143  A    between atoms: _350  and  _351
REMARK  144  A    between atoms: _356  and  _357
REMARK  145  A    between atoms: _359  and  _361
REMARK  146  A    between atoms: _361  and  _362
REMARK  147  A    between atoms: _361  and  _364
REMARK  148  A    between atoms: _364  and  _365
REMARK  149  A    between atoms: _365  and  _366
REMARK  150  A    between atoms: _369  and  _371
REMARK  151  A    between atoms: _371  and  _372
REMARK  152  A    between atoms: _371  and  _374
REMARK  153  A    between atoms: _374  and  _375
REMARK  154  A    between atoms: _378  and  _380
REMARK  155  A    between atoms: _380  and  _381
REMARK  156  A    between atoms: _384  and  _386
REMARK  157  A    between atoms: _386  and  _387
REMARK  158  A    between atoms: _386  and  _389
REMARK  159  A    between atoms: _389  and  _390
REMARK  160  A    between atoms: _390  and  _391
REMARK  161  A    between atoms: _391  and  _392
REMARK  162  A    between atoms: _401  and  _403
REMARK  163  A    between atoms: _403  and  _404
REMARK  164  A    between atoms: _403  and  _406
REMARK  165  A    between atoms: _406  and  _407
REMARK  166  A    between atoms: _417  and  _419
REMARK  167  A    between atoms: _419  and  _420
REMARK  168  A    between atoms: _419  and  _422
REMARK  169  A    between atoms: _422  and  _423
REMARK  170  A    between atoms: _428  and  _429
REMARK  171  A    between atoms: _431  and  _433
REMARK  172  A    between atoms: _433  and  _434
REMARK  173  A    between atoms: _433  and  _436
REMARK  174  A    between atoms: _436  and  _437
REMARK  175  A    between atoms: _442  and  _443
REMARK  176  A    between atoms: _445  and  _447
REMARK  177  A    between atoms: _447  and  _448
REMARK  178  A    between atoms: _447  and  _450
REMARK  179  A    between atoms: _450  and  _451
REMARK  180  A    between atoms: _451  and  _452
REMARK  181  A    between atoms: _452  and  _453
REMARK  182  A    between atoms: _453  and  _454
REMARK  183  A    between atoms: _458  and  _460
REMARK  184  A    between atoms: _460  and  _461
REMARK  185  A    between atoms: _460  and  _463
REMARK  186  A    between atoms: _463  and  _464
REMARK  187  A    between atoms: _467  and  _469
REMARK  188  A    between atoms: _469  and  _470
REMARK  189  A    between atoms: _469  and  _472
REMARK  190  A    between atoms: _475  and  _477
REMARK  191  A    between atoms: _477  and  _478
REMARK  192  A    between atoms: _477  and  _480
REMARK  193  A    between atoms: _480  and  _481
REMARK  194  A    between atoms: _484  and  _486
REMARK  195  A    between atoms: _486  and  _487
REMARK  196  A    between atoms: _486  and  _489
REMARK  197  A    between atoms: _489  and  _490
REMARK  198  A    between atoms: _492  and  _494
REMARK  199  A    between atoms: _494  and  _495
REMARK  200  A    between atoms: _497  and  _499
REMARK  201  A    between atoms: _499  and  _500
REMARK  202  A    between atoms: _499  and  _502
REMARK  203  A    between atoms: _502  and  _503
REMARK  204  A    between atoms: _506  and  _508
REMARK  205  A    between atoms: _508  and  _509
REMARK  206  A    between atoms: _508  and  _511
REMARK  207  A    between atoms: _511  and  _512
REMARK  208  A    between atoms: _515  and  _517
REMARK  209  A    between atoms: _517  and  _518
REMARK  210  A    between atoms: _517  and  _520
REMARK  211  A    between atoms: _520  and  _521
REMARK  212  A    between atoms: _526  and  _528
REMARK  213  A    between atoms: _528  and  _529
REMARK  214  A    between atoms: _528  and  _531
REMARK  215  A    between atoms: _531  and  _532
REMARK  216  A    between atoms: _532  and  _533
REMARK  217  A    between atoms: _533  and  _534
REMARK  218  A    between atoms: _543  and  _545
REMARK  219  A    between atoms: _545  and  _546
REMARK  220  A    between atoms: _545  and  _548
REMARK  221  A    between atoms: _548  and  _549
REMARK  222  A    between atoms: _549  and  _550
REMARK  223  A    between atoms: _550  and  _551
REMARK  224  A    between atoms: _560  and  _562
REMARK  225  A    between atoms: _562  and  _563
REMARK  226  A    between atoms: _562  and  _565
REMARK  227  A    between atoms: _565  and  _566
REMARK  228  A    between atoms: _568  and  _570
REMARK  229  A    between atoms: _570  and  _571
REMARK  230  A    between atoms: _570  and  _573
REMARK  231  A    between atoms: _573  and  _574
REMARK  232  A    between atoms: _574  and  _575
REMARK  233  A    between atoms: _580  and  _582
REMARK  234  A    between atoms: _582  and  _583
REMARK  235  A    between atoms: _582  and  _585
REMARK  236  A    between atoms: _585  and  _586
REMARK  237  A    between atoms: _588  and  _590
REMARK  238  A    between atoms: _590  and  _591
REMARK  239  A    between atoms: _590  and  _593
REMARK  240  A    between atoms: _593  and  _594
REMARK  241  A    between atoms: _596  and  _598
REMARK  242  A    between atoms: _598  and  _599
REMARK  243  A    between atoms: _598  and  _601
REMARK  244  A    between atoms: _601  and  _602
REMARK  245  A    between atoms: _605  and  _607
REMARK  246  A    between atoms: _607  and  _608
REMARK  247  A    between atoms: _607  and  _610
REMARK  248  A    between atoms: _610  and  _611
REMARK  249  A    between atoms: _614  and  _616
REMARK  250  A    between atoms: _616  and  _617
REMARK  251  A    between atoms: _616  and  _619
REMARK  252  A    between atoms: _622  and  _624
REMARK  253  A    between atoms: _624  and  _625
REMARK  254  A    between atoms: _627  and  _629
REMARK  255  A    between atoms: _629  and  _630
REMARK  256  A    between atoms: _633  and  _635
REMARK  257  A    between atoms: _635  and  _636
REMARK  258  A    between atoms: _635  and  _638
REMARK                            x       y       z     vdW  Elec       q    Type
REMARK                         _______ _______ _______ _____ _____    ______ ____
ROOT
ATOM      1  O   HOH     1      23.872  13.823  27.638  0.00  0.00    +0.000 OA
ENDROOT
TORSDOF 0
REMARK  Name = ../refined-set-2016/3lpk/3lpk_pocket.pdb
REMARK  258 active torsions:
REMARK  status: ('A' for Active; 'I' for Inactive)
REMARK    1  A    between atoms: _1  and  _3
REMARK    2  A    between atoms: _3  and  _4
REMARK    3  A    between atoms: _3  and  _6
REMARK    4  A    between atoms: _6  and  _7
REMARK    5  A    between atoms: _7  and  _8
REMARK    6  A    between atoms: _8  and  _9
REMARK    7  A    between atoms: _9  and  _10
REMARK    8  A    between atoms: _14  and  _16
REMARK    9  A    between atoms: _16  and  _17
REMARK   10  A    between atoms: _16  and  _19
REMARK   11  A    between atoms: _19  and  _20
REMARK   12  A    between atoms: _22  and  _24
REMARK   13  A    between atoms: _24  and  _25
REMARK   14  A    between atoms: _27  and  _29
REMARK   15  A    between atoms: _29  and  _30
REMARK   16  A    between atoms: _29  and  _32
REMARK   17  A    between atoms: _32  and  _33
REMARK   18  A    between atoms: _33  and  _34
REMARK   19  A    between atoms: _39  and  _41
REMARK   20  A    between atoms: _41  and  _42
REMARK   21  A    between atoms: _44  and  _46
REMARK   22  A    between atoms: _46  and  _47
REMARK   23  A    between atoms: _46  and  _49
REMARK   24  A    between atoms: _49  and  _50
REMARK   25  A    between atoms: _55  and  _56
REMARK   26  A    between atoms: _58  and  _60
REMARK   27  A    between atoms: _60  and  _61
REMARK   28  A    between atoms: _60  and  _63
REMARK   29  A    between atoms: _63  and  _64
REMARK   30  A    between atoms: _67  and  _69
REMARK   31  A    between atoms: _69  and  _70
REMARK   32  A    between atoms: _69  and  _72
REMARK   33  A    between atoms: _75  and  _77
REMARK   34  A    between atoms: _77  and  _78
REMARK   35  A    between atoms: _77  and  _80
REMARK   36  A    between atoms: _80  and  _81
REMARK   37  A    between atoms: _84  and  _86
REMARK   38  A    between atoms: _86  and  _87
REMARK   39  A    between atoms: _86  and  _89
REMARK   40  A    between atoms: _89  and  _90
REMARK   41  A    between atoms: _93  and  _95
REMARK   42  A    between atoms: _95  and  _96
REMARK   43  A    between atoms: _98  and  _100
REMARK   44  A    between atoms: _100  and  _101
REMARK   45  A    between atoms: _100  and  _103
REMARK   46  A    between atoms: _103  and  _104
REMARK   47  A    between atoms: _106  and  _108
REMARK   48  A    between atoms: _108  and  _109
REMARK   49  A    between atoms: _108  and  _111
REMARK   50  A    between atoms: _111  and  _112
REMARK   51  A    between atoms: _114  and  _116
REMARK   52  A    between atoms: _116  and  _117
REMARK   53  A    between atoms: _116  and  _119
REMARK   54  A    between atoms: _119  and  _120
REMARK   55  A    between atoms: _125  and  _127
REMARK   56  A    between atoms: _127  and  _128
REMARK   57  A    between atoms: _127  and  _130
REMARK   58  A    between atoms: _130  and  _131
REMARK   59  A    between atoms: _136  and  _137
REMARK   60  A    between atoms: _139  and  _141
REMARK   61  A    between atoms: _141  and  _142
REMARK   62  A    between atoms: _141  and  _144
REMARK   63  A    between atoms: _148  and  _149
REMARK   64  A    between atoms: _154  and  _156
REMARK   65  A    between atoms: _156  and  _157
REMARK   66  A    between atoms: _156  and  _159
REMARK   67  A    between atoms: _159  and  _160
REMARK   68  A    between atoms: _165  and  _166
REMARK   69  A    between atoms: _168  and  _170
REMARK   70  A    between atoms: _170  and  _171
REMARK   71  A    between atoms: _170  and  _173
REMARK   72  A    between atoms: _173  and  _174
REMARK   73  A    between atoms: _177  and  _179
REMARK   74  A    between atoms: _179  and  _180
REMARK   75  A    between atoms: _179  and  _182
REMARK   76  A    between atoms: _182  and  _183
REMARK   77  A    between atoms: _183  and  _184
REMARK   78  A    between atoms: _189  and  _191
REMARK   79  A    between atoms: _191  and  _192
REMARK   80  A    between atoms: _194  and  _196
REMARK   81  A    between atoms: _196  and  _197
REMARK   82  A    between atoms: _196  and  _199
REMARK   83  A    between atoms: _199  and  _200
REMARK   84  A    between atoms: _200  and  _201
REMARK   85  A    between atoms: _201  and  _202
REMARK   86  A    between atoms: _202  and  _203
REMARK   87  A    between atoms: _207  and  _209
REMARK   88  A    between atoms: _209  and  _210
REMARK   89  A    between atoms: _209  and  _212
REMARK   90  A    between atoms: _212  and  _213
REMARK   91  A    between atoms: _223  and  _225
REMARK   92  A    between atoms: _225  and  _226
REMARK   93  A    between atoms: _225  and  _228
REMARK   94  A    between atoms: _228  and  _229
REMARK   95  A    between atoms: _232  and  _234
REMARK   96  A    between atoms: _234  and  _235
REMARK   97  A    between atoms: _234  and  _237
REMARK   98  A    between atoms: _237  and  _238
REMARK   99  A    between atoms: _238  and  _239
REMARK  100  A    between atoms: _239  and  _240
REMARK  101  A    between atoms: _240  and  _241
REMARK  102  A    between atoms: _245  and  _247
REMARK  103  A    between atoms: _247  and  _248
REMARK  104  A    between atoms: _247  and  _250
REMARK  105  A    between atoms: _250  and  _251
REMARK  106  A    between atoms: _257  and  _259
REMARK  107  A    between atoms: _259  and  _260
REMARK  108  A    between atoms: _259  and  _262
REMARK  109  A    between atoms: _262  and  _263
REMARK  110  A    between atoms: _269  and  _271
REMARK  111  A    between atoms: _271  and  _272
REMARK  112  A    between atoms: _271  and  _274
REMARK  113  A    between atoms: _274  and  _275
REMARK  114  A    between atoms: _278  and  _280
REMARK  115  A    between atoms: _280  and  _281
REMARK  116  A    between atoms: _280  and  _283
REMARK  117  A    between atoms: _283  and  _284
REMARK  118  A    between atoms: _286  and  _288
REMARK  119  A    between atoms: _288  and  _289
REMARK  120  A    between atoms: _288  and  _291
REMARK  121  A    between atoms: _291  and  _292
REMARK  122  A    between atoms: _302  and  _304
REMARK  123  A    between atoms: _304  and  _305
REMARK  124  A    between atoms: _307  and  _309
REMARK  125  A    between atoms: _309  and  _310
REMARK  126  A    between atoms: _309  and  _312
REMARK  127  A    between atoms: _312  and  _313
REMARK  128  A    between atoms: _316  and  _318
REMARK  129  A    between atoms: _318  and  _319
REMARK  130  A    between atoms: _318  and  _321
REMARK  131  A    between atoms: _321  and  _322
REMARK  132  A    between atoms: _325  and  _327
REMARK  133  A    between atoms: _327  and  _328
REMARK  134  A    between atoms: _330  and  _332
REMARK  135  A    between atoms: _332  and  _333
REMARK  136  A    between atoms: _332  and  _335
REMARK  137  A    between atoms: _335  and  _336
REMARK  138  A    between atoms: _339  and  _341
REMARK  139  A    between atoms: _341  and  _342
REMARK  140  A    between atoms: _345  and  _347
REMARK  141  A    between atoms: _347  and  _348
REMARK  142  A    between atoms: _347  and  _350
REMARK  143  A    between atoms: _350  and  _351
REMARK  144  A    between atoms: _356  and  _357
REMARK  145  A    between atoms: _359  and  _361
REMARK  146  A    between atoms: _361  and  _362
REMARK  147  A    between atoms: _361  and  _364
REMARK  148  A    between atoms: _364  and  _365
REMARK  149  A    between atoms: _365  and  _366
REMARK  150  A    between atoms: _369  and  _371
REMARK  151  A    between atoms: _371  and  _372
REMARK  152  A    between atoms: _371  and  _374
REMARK  153  A    between atoms: _374  and  _375
REMARK  154  A    between atoms: _378  and  _380
REMARK  155  A    between atoms: _380  and  _381
REMARK  156  A    between atoms: _384  and  _386
REMARK  157  A    between atoms: _386  and  _387
REMARK  158  A    between atoms: _386  and  _389
REMARK  159  A    between atoms: _389  and  _390
REMARK  160  A    between atoms: _390  and  _391
REMARK  161  A    between atoms: _391  and  _392
REMARK  162  A    between atoms: _401  and  _403
REMARK  163  A    between atoms: _403  and  _404
REMARK  164  A    between atoms: _403  and  _406
REMARK  165  A    between atoms: _406  and  _407
REMARK  166  A    between atoms: _417  and  _419
REMARK  167  A    between atoms: _419  and  _420
REMARK  168  A    between atoms: _419  and  _422
REMARK  169  A    between atoms: _422  and  _423
REMARK  170  A    between atoms: _428  and  _429
REMARK  171  A    between atoms: _431  and  _433
REMARK  172  A    between atoms: _433  and  _434
REMARK  173  A    between atoms: _433  and  _436
REMARK  174  A    between atoms: _436  and  _437
REMARK  175  A    between atoms: _442  and  _443
REMARK  176  A    between atoms: _445  and  _447
REMARK  177  A    between atoms: _447  and  _448
REMARK  178  A    between atoms: _447  and  _450
REMARK  179  A    between atoms: _450  and  _451
REMARK  180  A    between atoms: _451  and  _452
REMARK  181  A    between atoms: _452  and  _453
REMARK  182  A    between atoms: _453  and  _454
REMARK  183  A    between atoms: _458  and  _460
REMARK  184  A    between atoms: _460  and  _461
REMARK  185  A    between atoms: _460  and  _463
REMARK  186  A    between atoms: _463  and  _464
REMARK  187  A    between atoms: _467  and  _469
REMARK  188  A    between atoms: _469  and  _470
REMARK  189  A    between atoms: _469  and  _472
REMARK  190  A    between atoms: _475  and  _477
REMARK  191  A    between atoms: _477  and  _478
REMARK  192  A    between atoms: _477  and  _480
REMARK  193  A    between atoms: _480  and  _481
REMARK  194  A    between atoms: _484  and  _486
REMARK  195  A    between atoms: _486  and  _487
REMARK  196  A    between atoms: _486  and  _489
REMARK  197  A    between atoms: _489  and  _490
REMARK  198  A    between atoms: _492  and  _494
REMARK  199  A    between atoms: _494  and  _495
REMARK  200  A    between atoms: _497  and  _499
REMARK  201  A    between atoms: _499  and  _500
REMARK  202  A    between atoms: _499  and  _502
REMARK  203  A    between atoms: _502  and  _503
REMARK  204  A    between atoms: _506  and  _508
REMARK  205  A    between atoms: _508  and  _509
REMARK  206  A    between atoms: _508  and  _511
REMARK  207  A    between atoms: _511  and  _512
REMARK  208  A    between atoms: _515  and  _517
REMARK  209  A    between atoms: _517  and  _518
REMARK  210  A    between atoms: _517  and  _520
REMARK  211  A    between atoms: _520  and  _521
REMARK  212  A    between atoms: _526  and  _528
REMARK  213  A    between atoms: _528  and  _529
REMARK  214  A    between atoms: _528  and  _531
REMARK  215  A    between atoms: _531  and  _532
REMARK  216  A    between atoms: _532  and  _533
REMARK  217  A    between atoms: _533  and  _534
REMARK  218  A    between atoms: _543  and  _545
REMARK  219  A    between atoms: _545  and  _546
REMARK  220  A    between atoms: _545  and  _548
REMARK  221  A    between atoms: _548  and  _549
REMARK  222  A    between atoms: _549  and  _550
REMARK  223  A    between atoms: _550  and  _551
REMARK  224  A    between atoms: _560  and  _562
REMARK  225  A    between atoms: _562  and  _563
REMARK  226  A    between atoms: _562  and  _565
REMARK  227  A    between atoms: _565  and  _566
REMARK  228  A    between atoms: _568  and  _570
REMARK  229  A    between atoms: _570  and  _571
REMARK  230  A    between atoms: _570  and  _573
REMARK  231  A    between atoms: _573  and  _574
REMARK  232  A    between atoms: _574  and  _575
REMARK  233  A    between atoms: _580  and  _582
REMARK  234  A    between atoms: _582  and  _583
REMARK  235  A    between atoms: _582  and  _585
REMARK  236  A    between atoms: _585  and  _586
REMARK  237  A    between atoms: _588  and  _590
REMARK  238  A    between atoms: _590  and  _591
REMARK  239  A    between atoms: _590  and  _593
REMARK  240  A    between atoms: _593  and  _594
REMARK  241  A    between atoms: _596  and  _598
REMARK  242  A    between atoms: _598  and  _599
REMARK  243  A    between atoms: _598  and  _601
REMARK  244  A    between atoms: _601  and  _602
REMARK  245  A    between atoms: _605  and  _607
REMARK  246  A    between atoms: _607  and  _608
REMARK  247  A    between atoms: _607  and  _610
REMARK  248  A    between atoms: _610  and  _611
REMARK  249  A    between atoms: _614  and  _616
REMARK  250  A    between atoms: _616  and  _617
REMARK  251  A    between atoms: _616  and  _619
REMARK  252  A    between atoms: _622  and  _624
REMARK  253  A    between atoms: _624  and  _625
REMARK  254  A    between atoms: _627  and  _629
REMARK  255  A    between atoms: _629  and  _630
REMARK  256  A    between atoms: _633  and  _635
REMARK  257  A    between atoms: _635  and  _636
REMARK  258  A    between atoms: _635  and  _638
REMARK                            x       y       z     vdW  Elec       q    Type
REMARK                         _______ _______ _______ _____ _____    ______ ____
ROOT
ATOM      1  O   HOH     1      21.391  14.064  27.900  0.00  0.00    +0.000 OA
ENDROOT
TORSDOF 0
REMARK  Name = ../refined-set-2016/3lpk/3lpk_pocket.pdb
REMARK  258 active torsions:
REMARK  status: ('A' for Active; 'I' for Inactive)
REMARK    1  A    between atoms: _1  and  _3
REMARK    2  A    between atoms: _3  and  _4
REMARK    3  A    between atoms: _3  and  _6
REMARK    4  A    between atoms: _6  and  _7
REMARK    5  A    between atoms: _7  and  _8
REMARK    6  A    between atoms: _8  and  _9
REMARK    7  A    between atoms: _9  and  _10
REMARK    8  A    between atoms: _14  and  _16
REMARK    9  A    between atoms: _16  and  _17
REMARK   10  A    between atoms: _16  and  _19
REMARK   11  A    between atoms: _19  and  _20
REMARK   12  A    between atoms: _22  and  _24
REMARK   13  A    between atoms: _24  and  _25
REMARK   14  A    between atoms: _27  and  _29
REMARK   15  A    between atoms: _29  and  _30
REMARK   16  A    between atoms: _29  and  _32
REMARK   17  A    between atoms: _32  and  _33
REMARK   18  A    between atoms: _33  and  _34
REMARK   19  A    between atoms: _39  and  _41
REMARK   20  A    between atoms: _41  and  _42
REMARK   21  A    between atoms: _44  and  _46
REMARK   22  A    between atoms: _46  and  _47
REMARK   23  A    between atoms: _46  and  _49
REMARK   24  A    between atoms: _49  and  _50
REMARK   25  A    between atoms: _55  and  _56
REMARK   26  A    between atoms: _58  and  _60
REMARK   27  A    between atoms: _60  and  _61
REMARK   28  A    between atoms: _60  and  _63
REMARK   29  A    between atoms: _63  and  _64
REMARK   30  A    between atoms: _67  and  _69
REMARK   31  A    between atoms: _69  and  _70
REMARK   32  A    between atoms: _69  and  _72
REMARK   33  A    between atoms: _75  and  _77
REMARK   34  A    between atoms: _77  and  _78
REMARK   35  A    between atoms: _77  and  _80
REMARK   36  A    between atoms: _80  and  _81
REMARK   37  A    between atoms: _84  and  _86
REMARK   38  A    between atoms: _86  and  _87
REMARK   39  A    between atoms: _86  and  _89
REMARK   40  A    between atoms: _89  and  _90
REMARK   41  A    between atoms: _93  and  _95
REMARK   42  A    between atoms: _95  and  _96
REMARK   43  A    between atoms: _98  and  _100
REMARK   44  A    between atoms: _100  and  _101
REMARK   45  A    between atoms: _100  and  _103
REMARK   46  A    between atoms: _103  and  _104
REMARK   47  A    between atoms: _106  and  _108
REMARK   48  A    between atoms: _108  and  _109
REMARK   49  A    between atoms: _108  and  _111
REMARK   50  A    between atoms: _111  and  _112
REMARK   51  A    between atoms: _114  and  _116
REMARK   52  A    between atoms: _116  and  _117
REMARK   53  A    between atoms: _116  and  _119
REMARK   54  A    between atoms: _119  and  _120
REMARK   55  A    between atoms: _125  and  _127
REMARK   56  A    between atoms: _127  and  _128
REMARK   57  A    between atoms: _127  and  _130
REMARK   58  A    between atoms: _130  and  _131
REMARK   59  A    between atoms: _136  and  _137
REMARK   60  A    between atoms: _139  and  _141
REMARK   61  A    between atoms: _141  and  _142
REMARK   62  A    between atoms: _141  and  _144
REMARK   63  A    between atoms: _148  and  _149
REMARK   64  A    between atoms: _154  and  _156
REMARK   65  A    between atoms: _156  and  _157
REMARK   66  A    between atoms: _156  and  _159
REMARK   67  A    between atoms: _159  and  _160
REMARK   68  A    between atoms: _165  and  _166
REMARK   69  A    between atoms: _168  and  _170
REMARK   70  A    between atoms: _170  and  _171
REMARK   71  A    between atoms: _170  and  _173
REMARK   72  A    between atoms: _173  and  _174
REMARK   73  A    between atoms: _177  and  _179
REMARK   74  A    between atoms: _179  and  _180
REMARK   75  A    between atoms: _179  and  _182
REMARK   76  A    between atoms: _182  and  _183
REMARK   77  A    between atoms: _183  and  _184
REMARK   78  A    between atoms: _189  and  _191
REMARK   79  A    between atoms: _191  and  _192
REMARK   80  A    between atoms: _194  and  _196
REMARK   81  A    between atoms: _196  and  _197
REMARK   82  A    between atoms: _196  and  _199
REMARK   83  A    between atoms: _199  and  _200
REMARK   84  A    between atoms: _200  and  _201
REMARK   85  A    between atoms: _201  and  _202
REMARK   86  A    between atoms: _202  and  _203
REMARK   87  A    between atoms: _207  and  _209
REMARK   88  A    between atoms: _209  and  _210
REMARK   89  A    between atoms: _209  and  _212
REMARK   90  A    between atoms: _212  and  _213
REMARK   91  A    between atoms: _223  and  _225
REMARK   92  A    between atoms: _225  and  _226
REMARK   93  A    between atoms: _225  and  _228
REMARK   94  A    between atoms: _228  and  _229
REMARK   95  A    between atoms: _232  and  _234
REMARK   96  A    between atoms: _234  and  _235
REMARK   97  A    between atoms: _234  and  _237
REMARK   98  A    between atoms: _237  and  _238
REMARK   99  A    between atoms: _238  and  _239
REMARK  100  A    between atoms: _239  and  _240
REMARK  101  A    between atoms: _240  and  _241
REMARK  102  A    between atoms: _245  and  _247
REMARK  103  A    between atoms: _247  and  _248
REMARK  104  A    between atoms: _247  and  _250
REMARK  105  A    between atoms: _250  and  _251
REMARK  106  A    between atoms: _257  and  _259
REMARK  107  A    between atoms: _259  and  _260
REMARK  108  A    between atoms: _259  and  _262
REMARK  109  A    between atoms: _262  and  _263
REMARK  110  A    between atoms: _269  and  _271
REMARK  111  A    between atoms: _271  and  _272
REMARK  112  A    between atoms: _271  and  _274
REMARK  113  A    between atoms: _274  and  _275
REMARK  114  A    between atoms: _278  and  _280
REMARK  115  A    between atoms: _280  and  _281
REMARK  116  A    between atoms: _280  and  _283
REMARK  117  A    between atoms: _283  and  _284
REMARK  118  A    between atoms: _286  and  _288
REMARK  119  A    between atoms: _288  and  _289
REMARK  120  A    between atoms: _288  and  _291
REMARK  121  A    between atoms: _291  and  _292
REMARK  122  A    between atoms: _302  and  _304
REMARK  123  A    between atoms: _304  and  _305
REMARK  124  A    between atoms: _307  and  _309
REMARK  125  A    between atoms: _309  and  _310
REMARK  126  A    between atoms: _309  and  _312
REMARK  127  A    between atoms: _312  and  _313
REMARK  128  A    between atoms: _316  and  _318
REMARK  129  A    between atoms: _318  and  _319
REMARK  130  A    between atoms: _318  and  _321
REMARK  131  A    between atoms: _321  and  _322
REMARK  132  A    between atoms: _325  and  _327
REMARK  133  A    between atoms: _327  and  _328
REMARK  134  A    between atoms: _330  and  _332
REMARK  135  A    between atoms: _332  and  _333
REMARK  136  A    between atoms: _332  and  _335
REMARK  137  A    between atoms: _335  and  _336
REMARK  138  A    between atoms: _339  and  _341
REMARK  139  A    between atoms: _341  and  _342
REMARK  140  A    between atoms: _345  and  _347
REMARK  141  A    between atoms: _347  and  _348
REMARK  142  A    between atoms: _347  and  _350
REMARK  143  A    between atoms: _350  and  _351
REMARK  144  A    between atoms: _356  and  _357
REMARK  145  A    between atoms: _359  and  _361
REMARK  146  A    between atoms: _361  and  _362
REMARK  147  A    between atoms: _361  and  _364
REMARK  148  A    between atoms: _364  and  _365
REMARK  149  A    between atoms: _365  and  _366
REMARK  150  A    between atoms: _369  and  _371
REMARK  151  A    between atoms: _371  and  _372
REMARK  152  A    between atoms: _371  and  _374
REMARK  153  A    between atoms: _374  and  _375
REMARK  154  A    between atoms: _378  and  _380
REMARK  155  A    between atoms: _380  and  _381
REMARK  156  A    between atoms: _384  and  _386
REMARK  157  A    between atoms: _386  and  _387
REMARK  158  A    between atoms: _386  and  _389
REMARK  159  A    between atoms: _389  and  _390
REMARK  160  A    between atoms: _390  and  _391
REMARK  161  A    between atoms: _391  and  _392
REMARK  162  A    between atoms: _401  and  _403
REMARK  163  A    between atoms: _403  and  _404
REMARK  164  A    between atoms: _403  and  _406
REMARK  165  A    between atoms: _406  and  _407
REMARK  166  A    between atoms: _417  and  _419
REMARK  167  A    between atoms: _419  and  _420
REMARK  168  A    between atoms: _419  and  _422
REMARK  169  A    between atoms: _422  and  _423
REMARK  170  A    between atoms: _428  and  _429
REMARK  171  A    between atoms: _431  and  _433
REMARK  172  A    between atoms: _433  and  _434
REMARK  173  A    between atoms: _433  and  _436
REMARK  174  A    between atoms: _436  and  _437
REMARK  175  A    between atoms: _442  and  _443
REMARK  176  A    between atoms: _445  and  _447
REMARK  177  A    between atoms: _447  and  _448
REMARK  178  A    between atoms: _447  and  _450
REMARK  179  A    between atoms: _450  and  _451
REMARK  180  A    between atoms: _451  and  _452
REMARK  181  A    between atoms: _452  and  _453
REMARK  182  A    between atoms: _453  and  _454
REMARK  183  A    between atoms: _458  and  _460
REMARK  184  A    between atoms: _460  and  _461
REMARK  185  A    between atoms: _460  and  _463
REMARK  186  A    between atoms: _463  and  _464
REMARK  187  A    between atoms: _467  and  _469
REMARK  188  A    between atoms: _469  and  _470
REMARK  189  A    between atoms: _469  and  _472
REMARK  190  A    between atoms: _475  and  _477
REMARK  191  A    between atoms: _477  and  _478
REMARK  192  A    between atoms: _477  and  _480
REMARK  193  A    between atoms: _480  and  _481
REMARK  194  A    between atoms: _484  and  _486
REMARK  195  A    between atoms: _486  and  _487
REMARK  196  A    between atoms: _486  and  _489
REMARK  197  A    between atoms: _489  and  _490
REMARK  198  A    between atoms: _492  and  _494
REMARK  199  A    between atoms: _494  and  _495
REMARK  200  A    between atoms: _497  and  _499
REMARK  201  A    between atoms: _499  and  _500
REMARK  202  A    between atoms: _499  and  _502
REMARK  203  A    between atoms: _502  and  _503
REMARK  204  A    between atoms: _506  and  _508
REMARK  205  A    between atoms: _508  and  _509
REMARK  206  A    between atoms: _508  and  _511
REMARK  207  A    between atoms: _511  and  _512
REMARK  208  A    between atoms: _515  and  _517
REMARK  209  A    between atoms: _517  and  _518
REMARK  210  A    between atoms: _517  and  _520
REMARK  211  A    between atoms: _520  and  _521
REMARK  212  A    between atoms: _526  and  _528
REMARK  213  A    between atoms: _528  and  _529
REMARK  214  A    between atoms: _528  and  _531
REMARK  215  A    between atoms: _531  and  _532
REMARK  216  A    between atoms: _532  and  _533
REMARK  217  A    between atoms: _533  and  _534
REMARK  218  A    between atoms: _543  and  _545
REMARK  219  A    between atoms: _545  and  _546
REMARK  220  A    between atoms: _545  and  _548
REMARK  221  A    between atoms: _548  and  _549
REMARK  222  A    between atoms: _549  and  _550
REMARK  223  A    between atoms: _550  and  _551
REMARK  224  A    between atoms: _560  and  _562
REMARK  225  A    between atoms: _562  and  _563
REMARK  226  A    between atoms: _562  and  _565
REMARK  227  A    between atoms: _565  and  _566
REMARK  228  A    between atoms: _568  and  _570
REMARK  229  A    between atoms: _570  and  _571
REMARK  230  A    between atoms: _570  and  _573
REMARK  231  A    between atoms: _573  and  _574
REMARK  232  A    between atoms: _574  and  _575
REMARK  233  A    between atoms: _580  and  _582
REMARK  234  A    between atoms: _582  and  _583
REMARK  235  A    between atoms: _582  and  _585
REMARK  236  A    between atoms: _585  and  _586
REMARK  237  A    between atoms: _588  and  _590
REMARK  238  A    between atoms: _590  and  _591
REMARK  239  A    between atoms: _590  and  _593
REMARK  240  A    between atoms: _593  and  _594
REMARK  241  A    between atoms: _596  and  _598
REMARK  242  A    between atoms: _598  and  _599
REMARK  243  A    between atoms: _598  and  _601
REMARK  244  A    between atoms: _601  and  _602
REMARK  245  A    between atoms: _605  and  _607
REMARK  246  A    between atoms: _607  and  _608
REMARK  247  A    between atoms: _607  and  _610
REMARK  248  A    between atoms: _610  and  _611
REMARK  249  A    between atoms: _614  and  _616
REMARK  250  A    between atoms: _616  and  _617
REMARK  251  A    between atoms: _616  and  _619
REMARK  252  A    between atoms: _622  and  _624
REMARK  253  A    between atoms: _624  and  _625
REMARK  254  A    between atoms: _627  and  _629
REMARK  255  A    between atoms: _629  and  _630
REMARK  256  A    between atoms: _633  and  _635
REMARK  257  A    between atoms: _635  and  _636
REMARK  258  A    between atoms: _635  and  _638
REMARK                            x       y       z     vdW  Elec       q    Type
REMARK                         _______ _______ _______ _____ _____    ______ ____
ROOT
ATOM      1  O   HOH     1      26.477  14.447  16.576  0.00  0.00    +0.000 OA
ENDROOT
TORSDOF 0
REMARK  Name = ../refined-set-2016/3lpk/3lpk_pocket.pdb
REMARK  258 active torsions:
REMARK  status: ('A' for Active; 'I' for Inactive)
REMARK    1  A    between atoms: _1  and  _3
REMARK    2  A    between atoms: _3  and  _4
REMARK    3  A    between atoms: _3  and  _6
REMARK    4  A    between atoms: _6  and  _7
REMARK    5  A    between atoms: _7  and  _8
REMARK    6  A    between atoms: _8  and  _9
REMARK    7  A    between atoms: _9  and  _10
REMARK    8  A    between atoms: _14  and  _16
REMARK    9  A    between atoms: _16  and  _17
REMARK   10  A    between atoms: _16  and  _19
REMARK   11  A    between atoms: _19  and  _20
REMARK   12  A    between atoms: _22  and  _24
REMARK   13  A    between atoms: _24  and  _25
REMARK   14  A    between atoms: _27  and  _29
REMARK   15  A    between atoms: _29  and  _30
REMARK   16  A    between atoms: _29  and  _32
REMARK   17  A    between atoms: _32  and  _33
REMARK   18  A    between atoms: _33  and  _34
REMARK   19  A    between atoms: _39  and  _41
REMARK   20  A    between atoms: _41  and  _42
REMARK   21  A    between atoms: _44  and  _46
REMARK   22  A    between atoms: _46  and  _47
REMARK   23  A    between atoms: _46  and  _49
REMARK   24  A    between atoms: _49  and  _50
REMARK   25  A    between atoms: _55  and  _56
REMARK   26  A    between atoms: _58  and  _60
REMARK   27  A    between atoms: _60  and  _61
REMARK   28  A    between atoms: _60  and  _63
REMARK   29  A    between atoms: _63  and  _64
REMARK   30  A    between atoms: _67  and  _69
REMARK   31  A    between atoms: _69  and  _70
REMARK   32  A    between atoms: _69  and  _72
REMARK   33  A    between atoms: _75  and  _77
REMARK   34  A    between atoms: _77  and  _78
REMARK   35  A    between atoms: _77  and  _80
REMARK   36  A    between atoms: _80  and  _81
REMARK   37  A    between atoms: _84  and  _86
REMARK   38  A    between atoms: _86  and  _87
REMARK   39  A    between atoms: _86  and  _89
REMARK   40  A    between atoms: _89  and  _90
REMARK   41  A    between atoms: _93  and  _95
REMARK   42  A    between atoms: _95  and  _96
REMARK   43  A    between atoms: _98  and  _100
REMARK   44  A    between atoms: _100  and  _101
REMARK   45  A    between atoms: _100  and  _103
REMARK   46  A    between atoms: _103  and  _104
REMARK   47  A    between atoms: _106  and  _108
REMARK   48  A    between atoms: _108  and  _109
REMARK   49  A    between atoms: _108  and  _111
REMARK   50  A    between atoms: _111  and  _112
REMARK   51  A    between atoms: _114  and  _116
REMARK   52  A    between atoms: _116  and  _117
REMARK   53  A    between atoms: _116  and  _119
REMARK   54  A    between atoms: _119  and  _120
REMARK   55  A    between atoms: _125  and  _127
REMARK   56  A    between atoms: _127  and  _128
REMARK   57  A    between atoms: _127  and  _130
REMARK   58  A    between atoms: _130  and  _131
REMARK   59  A    between atoms: _136  and  _137
REMARK   60  A    between atoms: _139  and  _141
REMARK   61  A    between atoms: _141  and  _142
REMARK   62  A    between atoms: _141  and  _144
REMARK   63  A    between atoms: _148  and  _149
REMARK   64  A    between atoms: _154  and  _156
REMARK   65  A    between atoms: _156  and  _157
REMARK   66  A    between atoms: _156  and  _159
REMARK   67  A    between atoms: _159  and  _160
REMARK   68  A    between atoms: _165  and  _166
REMARK   69  A    between atoms: _168  and  _170
REMARK   70  A    between atoms: _170  and  _171
REMARK   71  A    between atoms: _170  and  _173
REMARK   72  A    between atoms: _173  and  _174
REMARK   73  A    between atoms: _177  and  _179
REMARK   74  A    between atoms: _179  and  _180
REMARK   75  A    between atoms: _179  and  _182
REMARK   76  A    between atoms: _182  and  _183
REMARK   77  A    between atoms: _183  and  _184
REMARK   78  A    between atoms: _189  and  _191
REMARK   79  A    between atoms: _191  and  _192
REMARK   80  A    between atoms: _194  and  _196
REMARK   81  A    between atoms: _196  and  _197
REMARK   82  A    between atoms: _196  and  _199
REMARK   83  A    between atoms: _199  and  _200
REMARK   84  A    between atoms: _200  and  _201
REMARK   85  A    between atoms: _201  and  _202
REMARK   86  A    between atoms: _202  and  _203
REMARK   87  A    between atoms: _207  and  _209
REMARK   88  A    between atoms: _209  and  _210
REMARK   89  A    between atoms: _209  and  _212
REMARK   90  A    between atoms: _212  and  _213
REMARK   91  A    between atoms: _223  and  _225
REMARK   92  A    between atoms: _225  and  _226
REMARK   93  A    between atoms: _225  and  _228
REMARK   94  A    between atoms: _228  and  _229
REMARK   95  A    between atoms: _232  and  _234
REMARK   96  A    between atoms: _234  and  _235
REMARK   97  A    between atoms: _234  and  _237
REMARK   98  A    between atoms: _237  and  _238
REMARK   99  A    between atoms: _238  and  _239
REMARK  100  A    between atoms: _239  and  _240
REMARK  101  A    between atoms: _240  and  _241
REMARK  102  A    between atoms: _245  and  _247
REMARK  103  A    between atoms: _247  and  _248
REMARK  104  A    between atoms: _247  and  _250
REMARK  105  A    between atoms: _250  and  _251
REMARK  106  A    between atoms: _257  and  _259
REMARK  107  A    between atoms: _259  and  _260
REMARK  108  A    between atoms: _259  and  _262
REMARK  109  A    between atoms: _262  and  _263
REMARK  110  A    between atoms: _269  and  _271
REMARK  111  A    between atoms: _271  and  _272
REMARK  112  A    between atoms: _271  and  _274
REMARK  113  A    between atoms: _274  and  _275
REMARK  114  A    between atoms: _278  and  _280
REMARK  115  A    between atoms: _280  and  _281
REMARK  116  A    between atoms: _280  and  _283
REMARK  117  A    between atoms: _283  and  _284
REMARK  118  A    between atoms: _286  and  _288
REMARK  119  A    between atoms: _288  and  _289
REMARK  120  A    between atoms: _288  and  _291
REMARK  121  A    between atoms: _291  and  _292
REMARK  122  A    between atoms: _302  and  _304
REMARK  123  A    between atoms: _304  and  _305
REMARK  124  A    between atoms: _307  and  _309
REMARK  125  A    between atoms: _309  and  _310
REMARK  126  A    between atoms: _309  and  _312
REMARK  127  A    between atoms: _312  and  _313
REMARK  128  A    between atoms: _316  and  _318
REMARK  129  A    between atoms: _318  and  _319
REMARK  130  A    between atoms: _318  and  _321
REMARK  131  A    between atoms: _321  and  _322
REMARK  132  A    between atoms: _325  and  _327
REMARK  133  A    between atoms: _327  and  _328
REMARK  134  A    between atoms: _330  and  _332
REMARK  135  A    between atoms: _332  and  _333
REMARK  136  A    between atoms: _332  and  _335
REMARK  137  A    between atoms: _335  and  _336
REMARK  138  A    between atoms: _339  and  _341
REMARK  139  A    between atoms: _341  and  _342
REMARK  140  A    between atoms: _345  and  _347
REMARK  141  A    between atoms: _347  and  _348
REMARK  142  A    between atoms: _347  and  _350
REMARK  143  A    between atoms: _350  and  _351
REMARK  144  A    between atoms: _356  and  _357
REMARK  145  A    between atoms: _359  and  _361
REMARK  146  A    between atoms: _361  and  _362
REMARK  147  A    between atoms: _361  and  _364
REMARK  148  A    between atoms: _364  and  _365
REMARK  149  A    between atoms: _365  and  _366
REMARK  150  A    between atoms: _369  and  _371
REMARK  151  A    between atoms: _371  and  _372
REMARK  152  A    between atoms: _371  and  _374
REMARK  153  A    between atoms: _374  and  _375
REMARK  154  A    between atoms: _378  and  _380
REMARK  155  A    between atoms: _380  and  _381
REMARK  156  A    between atoms: _384  and  _386
REMARK  157  A    between atoms: _386  and  _387
REMARK  158  A    between atoms: _386  and  _389
REMARK  159  A    between atoms: _389  and  _390
REMARK  160  A    between atoms: _390  and  _391
REMARK  161  A    between atoms: _391  and  _392
REMARK  162  A    between atoms: _401  and  _403
REMARK  163  A    between atoms: _403  and  _404
REMARK  164  A    between atoms: _403  and  _406
REMARK  165  A    between atoms: _406  and  _407
REMARK  166  A    between atoms: _417  and  _419
REMARK  167  A    between atoms: _419  and  _420
REMARK  168  A    between atoms: _419  and  _422
REMARK  169  A    between atoms: _422  and  _423
REMARK  170  A    between atoms: _428  and  _429
REMARK  171  A    between atoms: _431  and  _433
REMARK  172  A    between atoms: _433  and  _434
REMARK  173  A    between atoms: _433  and  _436
REMARK  174  A    between atoms: _436  and  _437
REMARK  175  A    between atoms: _442  and  _443
REMARK  176  A    between atoms: _445  and  _447
REMARK  177  A    between atoms: _447  and  _448
REMARK  178  A    between atoms: _447  and  _450
REMARK  179  A    between atoms: _450  and  _451
REMARK  180  A    between atoms: _451  and  _452
REMARK  181  A    between atoms: _452  and  _453
REMARK  182  A    between atoms: _453  and  _454
REMARK  183  A    between atoms: _458  and  _460
REMARK  184  A    between atoms: _460  and  _461
REMARK  185  A    between atoms: _460  and  _463
REMARK  186  A    between atoms: _463  and  _464
REMARK  187  A    between atoms: _467  and  _469
REMARK  188  A    between atoms: _469  and  _470
REMARK  189  A    between atoms: _469  and  _472
REMARK  190  A    between atoms: _475  and  _477
REMARK  191  A    between atoms: _477  and  _478
REMARK  192  A    between atoms: _477  and  _480
REMARK  193  A    between atoms: _480  and  _481
REMARK  194  A    between atoms: _484  and  _486
REMARK  195  A    between atoms: _486  and  _487
REMARK  196  A    between atoms: _486  and  _489
REMARK  197  A    between atoms: _489  and  _490
REMARK  198  A    between atoms: _492  and  _494
REMARK  199  A    between atoms: _494  and  _495
REMARK  200  A    between atoms: _497  and  _499
REMARK  201  A    between atoms: _499  and  _500
REMARK  202  A    between atoms: _499  and  _502
REMARK  203  A    between atoms: _502  and  _503
REMARK  204  A    between atoms: _506  and  _508
REMARK  205  A    between atoms: _508  and  _509
REMARK  206  A    between atoms: _508  and  _511
REMARK  207  A    between atoms: _511  and  _512
REMARK  208  A    between atoms: _515  and  _517
REMARK  209  A    between atoms: _517  and  _518
REMARK  210  A    between atoms: _517  and  _520
REMARK  211  A    between atoms: _520  and  _521
REMARK  212  A    between atoms: _526  and  _528
REMARK  213  A    between atoms: _528  and  _529
REMARK  214  A    between atoms: _528  and  _531
REMARK  215  A    between atoms: _531  and  _532
REMARK  216  A    between atoms: _532  and  _533
REMARK  217  A    between atoms: _533  and  _534
REMARK  218  A    between atoms: _543  and  _545
REMARK  219  A    between atoms: _545  and  _546
REMARK  220  A    between atoms: _545  and  _548
REMARK  221  A    between atoms: _548  and  _549
REMARK  222  A    between atoms: _549  and  _550
REMARK  223  A    between atoms: _550  and  _551
REMARK  224  A    between atoms: _560  and  _562
REMARK  225  A    between atoms: _562  and  _563
REMARK  226  A    between atoms: _562  and  _565
REMARK  227  A    between atoms: _565  and  _566
REMARK  228  A    between atoms: _568  and  _570
REMARK  229  A    between atoms: _570  and  _571
REMARK  230  A    between atoms: _570  and  _573
REMARK  231  A    between atoms: _573  and  _574
REMARK  232  A    between atoms: _574  and  _575
REMARK  233  A    between atoms: _580  and  _582
REMARK  234  A    between atoms: _582  and  _583
REMARK  235  A    between atoms: _582  and  _585
REMARK  236  A    between atoms: _585  and  _586
REMARK  237  A    between atoms: _588  and  _590
REMARK  238  A    between atoms: _590  and  _591
REMARK  239  A    between atoms: _590  and  _593
REMARK  240  A    between atoms: _593  and  _594
REMARK  241  A    between atoms: _596  and  _598
REMARK  242  A    between atoms: _598  and  _599
REMARK  243  A    between atoms: _598  and  _601
REMARK  244  A    between atoms: _601  and  _602
REMARK  245  A    between atoms: _605  and  _607
REMARK  246  A    between atoms: _607  and  _608
REMARK  247  A    between atoms: _607  and  _610
REMARK  248  A    between atoms: _610  and  _611
REMARK  249  A    between atoms: _614  and  _616
REMARK  250  A    between atoms: _616  and  _617
REMARK  251  A    between atoms: _616  and  _619
REMARK  252  A    between atoms: _622  and  _624
REMARK  253  A    between atoms: _624  and  _625
REMARK  254  A    between atoms: _627  and  _629
REMARK  255  A    between atoms: _629  and  _630
REMARK  256  A    between atoms: _633  and  _635
REMARK  257  A    between atoms: _635  and  _636
REMARK  258  A    between atoms: _635  and  _638
REMARK                            x       y       z     vdW  Elec       q    Type
REMARK                         _______ _______ _______ _____ _____    ______ ____
ROOT
ATOM      1  O   HOH     1      28.594  16.222  16.046  0.00  0.00    +0.000 OA
ENDROOT
TORSDOF 0
REMARK  Name = ../refined-set-2016/3lpk/3lpk_pocket.pdb
REMARK  258 active torsions:
REMARK  status: ('A' for Active; 'I' for Inactive)
REMARK    1  A    between atoms: _1  and  _3
REMARK    2  A    between atoms: _3  and  _4
REMARK    3  A    between atoms: _3  and  _6
REMARK    4  A    between atoms: _6  and  _7
REMARK    5  A    between atoms: _7  and  _8
REMARK    6  A    between atoms: _8  and  _9
REMARK    7  A    between atoms: _9  and  _10
REMARK    8  A    between atoms: _14  and  _16
REMARK    9  A    between atoms: _16  and  _17
REMARK   10  A    between atoms: _16  and  _19
REMARK   11  A    between atoms: _19  and  _20
REMARK   12  A    between atoms: _22  and  _24
REMARK   13  A    between atoms: _24  and  _25
REMARK   14  A    between atoms: _27  and  _29
REMARK   15  A    between atoms: _29  and  _30
REMARK   16  A    between atoms: _29  and  _32
REMARK   17  A    between atoms: _32  and  _33
REMARK   18  A    between atoms: _33  and  _34
REMARK   19  A    between atoms: _39  and  _41
REMARK   20  A    between atoms: _41  and  _42
REMARK   21  A    between atoms: _44  and  _46
REMARK   22  A    between atoms: _46  and  _47
REMARK   23  A    between atoms: _46  and  _49
REMARK   24  A    between atoms: _49  and  _50
REMARK   25  A    between atoms: _55  and  _56
REMARK   26  A    between atoms: _58  and  _60
REMARK   27  A    between atoms: _60  and  _61
REMARK   28  A    between atoms: _60  and  _63
REMARK   29  A    between atoms: _63  and  _64
REMARK   30  A    between atoms: _67  and  _69
REMARK   31  A    between atoms: _69  and  _70
REMARK   32  A    between atoms: _69  and  _72
REMARK   33  A    between atoms: _75  and  _77
REMARK   34  A    between atoms: _77  and  _78
REMARK   35  A    between atoms: _77  and  _80
REMARK   36  A    between atoms: _80  and  _81
REMARK   37  A    between atoms: _84  and  _86
REMARK   38  A    between atoms: _86  and  _87
REMARK   39  A    between atoms: _86  and  _89
REMARK   40  A    between atoms: _89  and  _90
REMARK   41  A    between atoms: _93  and  _95
REMARK   42  A    between atoms: _95  and  _96
REMARK   43  A    between atoms: _98  and  _100
REMARK   44  A    between atoms: _100  and  _101
REMARK   45  A    between atoms: _100  and  _103
REMARK   46  A    between atoms: _103  and  _104
REMARK   47  A    between atoms: _106  and  _108
REMARK   48  A    between atoms: _108  and  _109
REMARK   49  A    between atoms: _108  and  _111
REMARK   50  A    between atoms: _111  and  _112
REMARK   51  A    between atoms: _114  and  _116
REMARK   52  A    between atoms: _116  and  _117
REMARK   53  A    between atoms: _116  and  _119
REMARK   54  A    between atoms: _119  and  _120
REMARK   55  A    between atoms: _125  and  _127
REMARK   56  A    between atoms: _127  and  _128
REMARK   57  A    between atoms: _127  and  _130
REMARK   58  A    between atoms: _130  and  _131
REMARK   59  A    between atoms: _136  and  _137
REMARK   60  A    between atoms: _139  and  _141
REMARK   61  A    between atoms: _141  and  _142
REMARK   62  A    between atoms: _141  and  _144
REMARK   63  A    between atoms: _148  and  _149
REMARK   64  A    between atoms: _154  and  _156
REMARK   65  A    between atoms: _156  and  _157
REMARK   66  A    between atoms: _156  and  _159
REMARK   67  A    between atoms: _159  and  _160
REMARK   68  A    between atoms: _165  and  _166
REMARK   69  A    between atoms: _168  and  _170
REMARK   70  A    between atoms: _170  and  _171
REMARK   71  A    between atoms: _170  and  _173
REMARK   72  A    between atoms: _173  and  _174
REMARK   73  A    between atoms: _177  and  _179
REMARK   74  A    between atoms: _179  and  _180
REMARK   75  A    between atoms: _179  and  _182
REMARK   76  A    between atoms: _182  and  _183
REMARK   77  A    between atoms: _183  and  _184
REMARK   78  A    between atoms: _189  and  _191
REMARK   79  A    between atoms: _191  and  _192
REMARK   80  A    between atoms: _194  and  _196
REMARK   81  A    between atoms: _196  and  _197
REMARK   82  A    between atoms: _196  and  _199
REMARK   83  A    between atoms: _199  and  _200
REMARK   84  A    between atoms: _200  and  _201
REMARK   85  A    between atoms: _201  and  _202
REMARK   86  A    between atoms: _202  and  _203
REMARK   87  A    between atoms: _207  and  _209
REMARK   88  A    between atoms: _209  and  _210
REMARK   89  A    between atoms: _209  and  _212
REMARK   90  A    between atoms: _212  and  _213
REMARK   91  A    between atoms: _223  and  _225
REMARK   92  A    between atoms: _225  and  _226
REMARK   93  A    between atoms: _225  and  _228
REMARK   94  A    between atoms: _228  and  _229
REMARK   95  A    between atoms: _232  and  _234
REMARK   96  A    between atoms: _234  and  _235
REMARK   97  A    between atoms: _234  and  _237
REMARK   98  A    between atoms: _237  and  _238
REMARK   99  A    between atoms: _238  and  _239
REMARK  100  A    between atoms: _239  and  _240
REMARK  101  A    between atoms: _240  and  _241
REMARK  102  A    between atoms: _245  and  _247
REMARK  103  A    between atoms: _247  and  _248
REMARK  104  A    between atoms: _247  and  _250
REMARK  105  A    between atoms: _250  and  _251
REMARK  106  A    between atoms: _257  and  _259
REMARK  107  A    between atoms: _259  and  _260
REMARK  108  A    between atoms: _259  and  _262
REMARK  109  A    between atoms: _262  and  _263
REMARK  110  A    between atoms: _269  and  _271
REMARK  111  A    between atoms: _271  and  _272
REMARK  112  A    between atoms: _271  and  _274
REMARK  113  A    between atoms: _274  and  _275
REMARK  114  A    between atoms: _278  and  _280
REMARK  115  A    between atoms: _280  and  _281
REMARK  116  A    between atoms: _280  and  _283
REMARK  117  A    between atoms: _283  and  _284
REMARK  118  A    between atoms: _286  and  _288
REMARK  119  A    between atoms: _288  and  _289
REMARK  120  A    between atoms: _288  and  _291
REMARK  121  A    between atoms: _291  and  _292
REMARK  122  A    between atoms: _302  and  _304
REMARK  123  A    between atoms: _304  and  _305
REMARK  124  A    between atoms: _307  and  _309
REMARK  125  A    between atoms: _309  and  _310
REMARK  126  A    between atoms: _309  and  _312
REMARK  127  A    between atoms: _312  and  _313
REMARK  128  A    between atoms: _316  and  _318
REMARK  129  A    between atoms: _318  and  _319
REMARK  130  A    between atoms: _318  and  _321
REMARK  131  A    between atoms: _321  and  _322
REMARK  132  A    between atoms: _325  and  _327
REMARK  133  A    between atoms: _327  and  _328
REMARK  134  A    between atoms: _330  and  _332
REMARK  135  A    between atoms: _332  and  _333
REMARK  136  A    between atoms: _332  and  _335
REMARK  137  A    between atoms: _335  and  _336
REMARK  138  A    between atoms: _339  and  _341
REMARK  139  A    between atoms: _341  and  _342
REMARK  140  A    between atoms: _345  and  _347
REMARK  141  A    between atoms: _347  and  _348
REMARK  142  A    between atoms: _347  and  _350
REMARK  143  A    between atoms: _350  and  _351
REMARK  144  A    between atoms: _356  and  _357
REMARK  145  A    between atoms: _359  and  _361
REMARK  146  A    between atoms: _361  and  _362
REMARK  147  A    between atoms: _361  and  _364
REMARK  148  A    between atoms: _364  and  _365
REMARK  149  A    between atoms: _365  and  _366
REMARK  150  A    between atoms: _369  and  _371
REMARK  151  A    between atoms: _371  and  _372
REMARK  152  A    between atoms: _371  and  _374
REMARK  153  A    between atoms: _374  and  _375
REMARK  154  A    between atoms: _378  and  _380
REMARK  155  A    between atoms: _380  and  _381
REMARK  156  A    between atoms: _384  and  _386
REMARK  157  A    between atoms: _386  and  _387
REMARK  158  A    between atoms: _386  and  _389
REMARK  159  A    between atoms: _389  and  _390
REMARK  160  A    between atoms: _390  and  _391
REMARK  161  A    between atoms: _391  and  _392
REMARK  162  A    between atoms: _401  and  _403
REMARK  163  A    between atoms: _403  and  _404
REMARK  164  A    between atoms: _403  and  _406
REMARK  165  A    between atoms: _406  and  _407
REMARK  166  A    between atoms: _417  and  _419
REMARK  167  A    between atoms: _419  and  _420
REMARK  168  A    between atoms: _419  and  _422
REMARK  169  A    between atoms: _422  and  _423
REMARK  170  A    between atoms: _428  and  _429
REMARK  171  A    between atoms: _431  and  _433
REMARK  172  A    between atoms: _433  and  _434
REMARK  173  A    between atoms: _433  and  _436
REMARK  174  A    between atoms: _436  and  _437
REMARK  175  A    between atoms: _442  and  _443
REMARK  176  A    between atoms: _445  and  _447
REMARK  177  A    between atoms: _447  and  _448
REMARK  178  A    between atoms: _447  and  _450
REMARK  179  A    between atoms: _450  and  _451
REMARK  180  A    between atoms: _451  and  _452
REMARK  181  A    between atoms: _452  and  _453
REMARK  182  A    between atoms: _453  and  _454
REMARK  183  A    between atoms: _458  and  _460
REMARK  184  A    between atoms: _460  and  _461
REMARK  185  A    between atoms: _460  and  _463
REMARK  186  A    between atoms: _463  and  _464
REMARK  187  A    between atoms: _467  and  _469
REMARK  188  A    between atoms: _469  and  _470
REMARK  189  A    between atoms: _469  and  _472
REMARK  190  A    between atoms: _475  and  _477
REMARK  191  A    between atoms: _477  and  _478
REMARK  192  A    between atoms: _477  and  _480
REMARK  193  A    between atoms: _480  and  _481
REMARK  194  A    between atoms: _484  and  _486
REMARK  195  A    between atoms: _486  and  _487
REMARK  196  A    between atoms: _486  and  _489
REMARK  197  A    between atoms: _489  and  _490
REMARK  198  A    between atoms: _492  and  _494
REMARK  199  A    between atoms: _494  and  _495
REMARK  200  A    between atoms: _497  and  _499
REMARK  201  A    between atoms: _499  and  _500
REMARK  202  A    between atoms: _499  and  _502
REMARK  203  A    between atoms: _502  and  _503
REMARK  204  A    between atoms: _506  and  _508
REMARK  205  A    between atoms: _508  and  _509
REMARK  206  A    between atoms: _508  and  _511
REMARK  207  A    between atoms: _511  and  _512
REMARK  208  A    between atoms: _515  and  _517
REMARK  209  A    between atoms: _517  and  _518
REMARK  210  A    between atoms: _517  and  _520
REMARK  211  A    between atoms: _520  and  _521
REMARK  212  A    between atoms: _526  and  _528
REMARK  213  A    between atoms: _528  and  _529
REMARK  214  A    between atoms: _528  and  _531
REMARK  215  A    between atoms: _531  and  _532
REMARK  216  A    between atoms: _532  and  _533
REMARK  217  A    between atoms: _533  and  _534
REMARK  218  A    between atoms: _543  and  _545
REMARK  219  A    between atoms: _545  and  _546
REMARK  220  A    between atoms: _545  and  _548
REMARK  221  A    between atoms: _548  and  _549
REMARK  222  A    between atoms: _549  and  _550
REMARK  223  A    between atoms: _550  and  _551
REMARK  224  A    between atoms: _560  and  _562
REMARK  225  A    between atoms: _562  and  _563
REMARK  226  A    between atoms: _562  and  _565
REMARK  227  A    between atoms: _565  and  _566
REMARK  228  A    between atoms: _568  and  _570
REMARK  229  A    between atoms: _570  and  _571
REMARK  230  A    between atoms: _570  and  _573
REMARK  231  A    between atoms: _573  and  _574
REMARK  232  A    between atoms: _574  and  _575
REMARK  233  A    between atoms: _580  and  _582
REMARK  234  A    between atoms: _582  and  _583
REMARK  235  A    between atoms: _582  and  _585
REMARK  236  A    between atoms: _585  and  _586
REMARK  237  A    between atoms: _588  and  _590
REMARK  238  A    between atoms: _590  and  _591
REMARK  239  A    between atoms: _590  and  _593
REMARK  240  A    between atoms: _593  and  _594
REMARK  241  A    between atoms: _596  and  _598
REMARK  242  A    between atoms: _598  and  _599
REMARK  243  A    between atoms: _598  and  _601
REMARK  244  A    between atoms: _601  and  _602
REMARK  245  A    between atoms: _605  and  _607
REMARK  246  A    between atoms: _607  and  _608
REMARK  247  A    between atoms: _607  and  _610
REMARK  248  A    between atoms: _610  and  _611
REMARK  249  A    between atoms: _614  and  _616
REMARK  250  A    between atoms: _616  and  _617
REMARK  251  A    between atoms: _616  and  _619
REMARK  252  A    between atoms: _622  and  _624
REMARK  253  A    between atoms: _624  and  _625
REMARK  254  A    between atoms: _627  and  _629
REMARK  255  A    between atoms: _629  and  _630
REMARK  256  A    between atoms: _633  and  _635
REMARK  257  A    between atoms: _635  and  _636
REMARK  258  A    between atoms: _635  and  _638
REMARK                            x       y       z     vdW  Elec       q    Type
REMARK                         _______ _______ _______ _____ _____    ______ ____
ROOT
ATOM      1  O   HOH     1      30.909  16.158  17.278  0.00  0.00    +0.000 OA
ENDROOT
TORSDOF 0
REMARK  Name = ../refined-set-2016/3lpk/3lpk_pocket.pdb
REMARK  258 active torsions:
REMARK  status: ('A' for Active; 'I' for Inactive)
REMARK    1  A    between atoms: _1  and  _3
REMARK    2  A    between atoms: _3  and  _4
REMARK    3  A    between atoms: _3  and  _6
REMARK    4  A    between atoms: _6  and  _7
REMARK    5  A    between atoms: _7  and  _8
REMARK    6  A    between atoms: _8  and  _9
REMARK    7  A    between atoms: _9  and  _10
REMARK    8  A    between atoms: _14  and  _16
REMARK    9  A    between atoms: _16  and  _17
REMARK   10  A    between atoms: _16  and  _19
REMARK   11  A    between atoms: _19  and  _20
REMARK   12  A    between atoms: _22  and  _24
REMARK   13  A    between atoms: _24  and  _25
REMARK   14  A    between atoms: _27  and  _29
REMARK   15  A    between atoms: _29  and  _30
REMARK   16  A    between atoms: _29  and  _32
REMARK   17  A    between atoms: _32  and  _33
REMARK   18  A    between atoms: _33  and  _34
REMARK   19  A    between atoms: _39  and  _41
REMARK   20  A    between atoms: _41  and  _42
REMARK   21  A    between atoms: _44  and  _46
REMARK   22  A    between atoms: _46  and  _47
REMARK   23  A    between atoms: _46  and  _49
REMARK   24  A    between atoms: _49  and  _50
REMARK   25  A    between atoms: _55  and  _56
REMARK   26  A    between atoms: _58  and  _60
REMARK   27  A    between atoms: _60  and  _61
REMARK   28  A    between atoms: _60  and  _63
REMARK   29  A    between atoms: _63  and  _64
REMARK   30  A    between atoms: _67  and  _69
REMARK   31  A    between atoms: _69  and  _70
REMARK   32  A    between atoms: _69  and  _72
REMARK   33  A    between atoms: _75  and  _77
REMARK   34  A    between atoms: _77  and  _78
REMARK   35  A    between atoms: _77  and  _80
REMARK   36  A    between atoms: _80  and  _81
REMARK   37  A    between atoms: _84  and  _86
REMARK   38  A    between atoms: _86  and  _87
REMARK   39  A    between atoms: _86  and  _89
REMARK   40  A    between atoms: _89  and  _90
REMARK   41  A    between atoms: _93  and  _95
REMARK   42  A    between atoms: _95  and  _96
REMARK   43  A    between atoms: _98  and  _100
REMARK   44  A    between atoms: _100  and  _101
REMARK   45  A    between atoms: _100  and  _103
REMARK   46  A    between atoms: _103  and  _104
REMARK   47  A    between atoms: _106  and  _108
REMARK   48  A    between atoms: _108  and  _109
REMARK   49  A    between atoms: _108  and  _111
REMARK   50  A    between atoms: _111  and  _112
REMARK   51  A    between atoms: _114  and  _116
REMARK   52  A    between atoms: _116  and  _117
REMARK   53  A    between atoms: _116  and  _119
REMARK   54  A    between atoms: _119  and  _120
REMARK   55  A    between atoms: _125  and  _127
REMARK   56  A    between atoms: _127  and  _128
REMARK   57  A    between atoms: _127  and  _130
REMARK   58  A    between atoms: _130  and  _131
REMARK   59  A    between atoms: _136  and  _137
REMARK   60  A    between atoms: _139  and  _141
REMARK   61  A    between atoms: _141  and  _142
REMARK   62  A    between atoms: _141  and  _144
REMARK   63  A    between atoms: _148  and  _149
REMARK   64  A    between atoms: _154  and  _156
REMARK   65  A    between atoms: _156  and  _157
REMARK   66  A    between atoms: _156  and  _159
REMARK   67  A    between atoms: _159  and  _160
REMARK   68  A    between atoms: _165  and  _166
REMARK   69  A    between atoms: _168  and  _170
REMARK   70  A    between atoms: _170  and  _171
REMARK   71  A    between atoms: _170  and  _173
REMARK   72  A    between atoms: _173  and  _174
REMARK   73  A    between atoms: _177  and  _179
REMARK   74  A    between atoms: _179  and  _180
REMARK   75  A    between atoms: _179  and  _182
REMARK   76  A    between atoms: _182  and  _183
REMARK   77  A    between atoms: _183  and  _184
REMARK   78  A    between atoms: _189  and  _191
REMARK   79  A    between atoms: _191  and  _192
REMARK   80  A    between atoms: _194  and  _196
REMARK   81  A    between atoms: _196  and  _197
REMARK   82  A    between atoms: _196  and  _199
REMARK   83  A    between atoms: _199  and  _200
REMARK   84  A    between atoms: _200  and  _201
REMARK   85  A    between atoms: _201  and  _202
REMARK   86  A    between atoms: _202  and  _203
REMARK   87  A    between atoms: _207  and  _209
REMARK   88  A    between atoms: _209  and  _210
REMARK   89  A    between atoms: _209  and  _212
REMARK   90  A    between atoms: _212  and  _213
REMARK   91  A    between atoms: _223  and  _225
REMARK   92  A    between atoms: _225  and  _226
REMARK   93  A    between atoms: _225  and  _228
REMARK   94  A    between atoms: _228  and  _229
REMARK   95  A    between atoms: _232  and  _234
REMARK   96  A    between atoms: _234  and  _235
REMARK   97  A    between atoms: _234  and  _237
REMARK   98  A    between atoms: _237  and  _238
REMARK   99  A    between atoms: _238  and  _239
REMARK  100  A    between atoms: _239  and  _240
REMARK  101  A    between atoms: _240  and  _241
REMARK  102  A    between atoms: _245  and  _247
REMARK  103  A    between atoms: _247  and  _248
REMARK  104  A    between atoms: _247  and  _250
REMARK  105  A    between atoms: _250  and  _251
REMARK  106  A    between atoms: _257  and  _259
REMARK  107  A    between atoms: _259  and  _260
REMARK  108  A    between atoms: _259  and  _262
REMARK  109  A    between atoms: _262  and  _263
REMARK  110  A    between atoms: _269  and  _271
REMARK  111  A    between atoms: _271  and  _272
REMARK  112  A    between atoms: _271  and  _274
REMARK  113  A    between atoms: _274  and  _275
REMARK  114  A    between atoms: _278  and  _280
REMARK  115  A    between atoms: _280  and  _281
REMARK  116  A    between atoms: _280  and  _283
REMARK  117  A    between atoms: _283  and  _284
REMARK  118  A    between atoms: _286  and  _288
REMARK  119  A    between atoms: _288  and  _289
REMARK  120  A    between atoms: _288  and  _291
REMARK  121  A    between atoms: _291  and  _292
REMARK  122  A    between atoms: _302  and  _304
REMARK  123  A    between atoms: _304  and  _305
REMARK  124  A    between atoms: _307  and  _309
REMARK  125  A    between atoms: _309  and  _310
REMARK  126  A    between atoms: _309  and  _312
REMARK  127  A    between atoms: _312  and  _313
REMARK  128  A    between atoms: _316  and  _318
REMARK  129  A    between atoms: _318  and  _319
REMARK  130  A    between atoms: _318  and  _321
REMARK  131  A    between atoms: _321  and  _322
REMARK  132  A    between atoms: _325  and  _327
REMARK  133  A    between atoms: _327  and  _328
REMARK  134  A    between atoms: _330  and  _332
REMARK  135  A    between atoms: _332  and  _333
REMARK  136  A    between atoms: _332  and  _335
REMARK  137  A    between atoms: _335  and  _336
REMARK  138  A    between atoms: _339  and  _341
REMARK  139  A    between atoms: _341  and  _342
REMARK  140  A    between atoms: _345  and  _347
REMARK  141  A    between atoms: _347  and  _348
REMARK  142  A    between atoms: _347  and  _350
REMARK  143  A    between atoms: _350  and  _351
REMARK  144  A    between atoms: _356  and  _357
REMARK  145  A    between atoms: _359  and  _361
REMARK  146  A    between atoms: _361  and  _362
REMARK  147  A    between atoms: _361  and  _364
REMARK  148  A    between atoms: _364  and  _365
REMARK  149  A    between atoms: _365  and  _366
REMARK  150  A    between atoms: _369  and  _371
REMARK  151  A    between atoms: _371  and  _372
REMARK  152  A    between atoms: _371  and  _374
REMARK  153  A    between atoms: _374  and  _375
REMARK  154  A    between atoms: _378  and  _380
REMARK  155  A    between atoms: _380  and  _381
REMARK  156  A    between atoms: _384  and  _386
REMARK  157  A    between atoms: _386  and  _387
REMARK  158  A    between atoms: _386  and  _389
REMARK  159  A    between atoms: _389  and  _390
REMARK  160  A    between atoms: _390  and  _391
REMARK  161  A    between atoms: _391  and  _392
REMARK  162  A    between atoms: _401  and  _403
REMARK  163  A    between atoms: _403  and  _404
REMARK  164  A    between atoms: _403  and  _406
REMARK  165  A    between atoms: _406  and  _407
REMARK  166  A    between atoms: _417  and  _419
REMARK  167  A    between atoms: _419  and  _420
REMARK  168  A    between atoms: _419  and  _422
REMARK  169  A    between atoms: _422  and  _423
REMARK  170  A    between atoms: _428  and  _429
REMARK  171  A    between atoms: _431  and  _433
REMARK  172  A    between atoms: _433  and  _434
REMARK  173  A    between atoms: _433  and  _436
REMARK  174  A    between atoms: _436  and  _437
REMARK  175  A    between atoms: _442  and  _443
REMARK  176  A    between atoms: _445  and  _447
REMARK  177  A    between atoms: _447  and  _448
REMARK  178  A    between atoms: _447  and  _450
REMARK  179  A    between atoms: _450  and  _451
REMARK  180  A    between atoms: _451  and  _452
REMARK  181  A    between atoms: _452  and  _453
REMARK  182  A    between atoms: _453  and  _454
REMARK  183  A    between atoms: _458  and  _460
REMARK  184  A    between atoms: _460  and  _461
REMARK  185  A    between atoms: _460  and  _463
REMARK  186  A    between atoms: _463  and  _464
REMARK  187  A    between atoms: _467  and  _469
REMARK  188  A    between atoms: _469  and  _470
REMARK  189  A    between atoms: _469  and  _472
REMARK  190  A    between atoms: _475  and  _477
REMARK  191  A    between atoms: _477  and  _478
REMARK  192  A    between atoms: _477  and  _480
REMARK  193  A    between atoms: _480  and  _481
REMARK  194  A    between atoms: _484  and  _486
REMARK  195  A    between atoms: _486  and  _487
REMARK  196  A    between atoms: _486  and  _489
REMARK  197  A    between atoms: _489  and  _490
REMARK  198  A    between atoms: _492  and  _494
REMARK  199  A    between atoms: _494  and  _495
REMARK  200  A    between atoms: _497  and  _499
REMARK  201  A    between atoms: _499  and  _500
REMARK  202  A    between atoms: _499  and  _502
REMARK  203  A    between atoms: _502  and  _503
REMARK  204  A    between atoms: _506  and  _508
REMARK  205  A    between atoms: _508  and  _509
REMARK  206  A    between atoms: _508  and  _511
REMARK  207  A    between atoms: _511  and  _512
REMARK  208  A    between atoms: _515  and  _517
REMARK  209  A    between atoms: _517  and  _518
REMARK  210  A    between atoms: _517  and  _520
REMARK  211  A    between atoms: _520  and  _521
REMARK  212  A    between atoms: _526  and  _528
REMARK  213  A    between atoms: _528  and  _529
REMARK  214  A    between atoms: _528  and  _531
REMARK  215  A    between atoms: _531  and  _532
REMARK  216  A    between atoms: _532  and  _533
REMARK  217  A    between atoms: _533  and  _534
REMARK  218  A    between atoms: _543  and  _545
REMARK  219  A    between atoms: _545  and  _546
REMARK  220  A    between atoms: _545  and  _548
REMARK  221  A    between atoms: _548  and  _549
REMARK  222  A    between atoms: _549  and  _550
REMARK  223  A    between atoms: _550  and  _551
REMARK  224  A    between atoms: _560  and  _562
REMARK  225  A    between atoms: _562  and  _563
REMARK  226  A    between atoms: _562  and  _565
REMARK  227  A    between atoms: _565  and  _566
REMARK  228  A    between atoms: _568  and  _570
REMARK  229  A    between atoms: _570  and  _571
REMARK  230  A    between atoms: _570  and  _573
REMARK  231  A    between atoms: _573  and  _574
REMARK  232  A    between atoms: _574  and  _575
REMARK  233  A    between atoms: _580  and  _582
REMARK  234  A    between atoms: _582  and  _583
REMARK  235  A    between atoms: _582  and  _585
REMARK  236  A    between atoms: _585  and  _586
REMARK  237  A    between atoms: _588  and  _590
REMARK  238  A    between atoms: _590  and  _591
REMARK  239  A    between atoms: _590  and  _593
REMARK  240  A    between atoms: _593  and  _594
REMARK  241  A    between atoms: _596  and  _598
REMARK  242  A    between atoms: _598  and  _599
REMARK  243  A    between atoms: _598  and  _601
REMARK  244  A    between atoms: _601  and  _602
REMARK  245  A    between atoms: _605  and  _607
REMARK  246  A    between atoms: _607  and  _608
REMARK  247  A    between atoms: _607  and  _610
REMARK  248  A    between atoms: _610  and  _611
REMARK  249  A    between atoms: _614  and  _616
REMARK  250  A    between atoms: _616  and  _617
REMARK  251  A    between atoms: _616  and  _619
REMARK  252  A    between atoms: _622  and  _624
REMARK  253  A    between atoms: _624  and  _625
REMARK  254  A    between atoms: _627  and  _629
REMARK  255  A    between atoms: _629  and  _630
REMARK  256  A    between atoms: _633  and  _635
REMARK  257  A    between atoms: _635  and  _636
REMARK  258  A    between atoms: _635  and  _638
REMARK                            x       y       z     vdW  Elec       q    Type
REMARK                         _______ _______ _______ _____ _____    ______ ____
ROOT
ATOM      1  O   HOH     1      32.533  14.251  18.103  0.00  0.00    +0.000 OA
ENDROOT
TORSDOF 0
REMARK  Name = ../refined-set-2016/3lpk/3lpk_pocket.pdb
REMARK  258 active torsions:
REMARK  status: ('A' for Active; 'I' for Inactive)
REMARK    1  A    between atoms: _1  and  _3
REMARK    2  A    between atoms: _3  and  _4
REMARK    3  A    between atoms: _3  and  _6
REMARK    4  A    between atoms: _6  and  _7
REMARK    5  A    between atoms: _7  and  _8
REMARK    6  A    between atoms: _8  and  _9
REMARK    7  A    between atoms: _9  and  _10
REMARK    8  A    between atoms: _14  and  _16
REMARK    9  A    between atoms: _16  and  _17
REMARK   10  A    between atoms: _16  and  _19
REMARK   11  A    between atoms: _19  and  _20
REMARK   12  A    between atoms: _22  and  _24
REMARK   13  A    between atoms: _24  and  _25
REMARK   14  A    between atoms: _27  and  _29
REMARK   15  A    between atoms: _29  and  _30
REMARK   16  A    between atoms: _29  and  _32
REMARK   17  A    between atoms: _32  and  _33
REMARK   18  A    between atoms: _33  and  _34
REMARK   19  A    between atoms: _39  and  _41
REMARK   20  A    between atoms: _41  and  _42
REMARK   21  A    between atoms: _44  and  _46
REMARK   22  A    between atoms: _46  and  _47
REMARK   23  A    between atoms: _46  and  _49
REMARK   24  A    between atoms: _49  and  _50
REMARK   25  A    between atoms: _55  and  _56
REMARK   26  A    between atoms: _58  and  _60
REMARK   27  A    between atoms: _60  and  _61
REMARK   28  A    between atoms: _60  and  _63
REMARK   29  A    between atoms: _63  and  _64
REMARK   30  A    between atoms: _67  and  _69
REMARK   31  A    between atoms: _69  and  _70
REMARK   32  A    between atoms: _69  and  _72
REMARK   33  A    between atoms: _75  and  _77
REMARK   34  A    between atoms: _77  and  _78
REMARK   35  A    between atoms: _77  and  _80
REMARK   36  A    between atoms: _80  and  _81
REMARK   37  A    between atoms: _84  and  _86
REMARK   38  A    between atoms: _86  and  _87
REMARK   39  A    between atoms: _86  and  _89
REMARK   40  A    between atoms: _89  and  _90
REMARK   41  A    between atoms: _93  and  _95
REMARK   42  A    between atoms: _95  and  _96
REMARK   43  A    between atoms: _98  and  _100
REMARK   44  A    between atoms: _100  and  _101
REMARK   45  A    between atoms: _100  and  _103
REMARK   46  A    between atoms: _103  and  _104
REMARK   47  A    between atoms: _106  and  _108
REMARK   48  A    between atoms: _108  and  _109
REMARK   49  A    between atoms: _108  and  _111
REMARK   50  A    between atoms: _111  and  _112
REMARK   51  A    between atoms: _114  and  _116
REMARK   52  A    between atoms: _116  and  _117
REMARK   53  A    between atoms: _116  and  _119
REMARK   54  A    between atoms: _119  and  _120
REMARK   55  A    between atoms: _125  and  _127
REMARK   56  A    between atoms: _127  and  _128
REMARK   57  A    between atoms: _127  and  _130
REMARK   58  A    between atoms: _130  and  _131
REMARK   59  A    between atoms: _136  and  _137
REMARK   60  A    between atoms: _139  and  _141
REMARK   61  A    between atoms: _141  and  _142
REMARK   62  A    between atoms: _141  and  _144
REMARK   63  A    between atoms: _148  and  _149
REMARK   64  A    between atoms: _154  and  _156
REMARK   65  A    between atoms: _156  and  _157
REMARK   66  A    between atoms: _156  and  _159
REMARK   67  A    between atoms: _159  and  _160
REMARK   68  A    between atoms: _165  and  _166
REMARK   69  A    between atoms: _168  and  _170
REMARK   70  A    between atoms: _170  and  _171
REMARK   71  A    between atoms: _170  and  _173
REMARK   72  A    between atoms: _173  and  _174
REMARK   73  A    between atoms: _177  and  _179
REMARK   74  A    between atoms: _179  and  _180
REMARK   75  A    between atoms: _179  and  _182
REMARK   76  A    between atoms: _182  and  _183
REMARK   77  A    between atoms: _183  and  _184
REMARK   78  A    between atoms: _189  and  _191
REMARK   79  A    between atoms: _191  and  _192
REMARK   80  A    between atoms: _194  and  _196
REMARK   81  A    between atoms: _196  and  _197
REMARK   82  A    between atoms: _196  and  _199
REMARK   83  A    between atoms: _199  and  _200
REMARK   84  A    between atoms: _200  and  _201
REMARK   85  A    between atoms: _201  and  _202
REMARK   86  A    between atoms: _202  and  _203
REMARK   87  A    between atoms: _207  and  _209
REMARK   88  A    between atoms: _209  and  _210
REMARK   89  A    between atoms: _209  and  _212
REMARK   90  A    between atoms: _212  and  _213
REMARK   91  A    between atoms: _223  and  _225
REMARK   92  A    between atoms: _225  and  _226
REMARK   93  A    between atoms: _225  and  _228
REMARK   94  A    between atoms: _228  and  _229
REMARK   95  A    between atoms: _232  and  _234
REMARK   96  A    between atoms: _234  and  _235
REMARK   97  A    between atoms: _234  and  _237
REMARK   98  A    between atoms: _237  and  _238
REMARK   99  A    between atoms: _238  and  _239
REMARK  100  A    between atoms: _239  and  _240
REMARK  101  A    between atoms: _240  and  _241
REMARK  102  A    between atoms: _245  and  _247
REMARK  103  A    between atoms: _247  and  _248
REMARK  104  A    between atoms: _247  and  _250
REMARK  105  A    between atoms: _250  and  _251
REMARK  106  A    between atoms: _257  and  _259
REMARK  107  A    between atoms: _259  and  _260
REMARK  108  A    between atoms: _259  and  _262
REMARK  109  A    between atoms: _262  and  _263
REMARK  110  A    between atoms: _269  and  _271
REMARK  111  A    between atoms: _271  and  _272
REMARK  112  A    between atoms: _271  and  _274
REMARK  113  A    between atoms: _274  and  _275
REMARK  114  A    between atoms: _278  and  _280
REMARK  115  A    between atoms: _280  and  _281
REMARK  116  A    between atoms: _280  and  _283
REMARK  117  A    between atoms: _283  and  _284
REMARK  118  A    between atoms: _286  and  _288
REMARK  119  A    between atoms: _288  and  _289
REMARK  120  A    between atoms: _288  and  _291
REMARK  121  A    between atoms: _291  and  _292
REMARK  122  A    between atoms: _302  and  _304
REMARK  123  A    between atoms: _304  and  _305
REMARK  124  A    between atoms: _307  and  _309
REMARK  125  A    between atoms: _309  and  _310
REMARK  126  A    between atoms: _309  and  _312
REMARK  127  A    between atoms: _312  and  _313
REMARK  128  A    between atoms: _316  and  _318
REMARK  129  A    between atoms: _318  and  _319
REMARK  130  A    between atoms: _318  and  _321
REMARK  131  A    between atoms: _321  and  _322
REMARK  132  A    between atoms: _325  and  _327
REMARK  133  A    between atoms: _327  and  _328
REMARK  134  A    between atoms: _330  and  _332
REMARK  135  A    between atoms: _332  and  _333
REMARK  136  A    between atoms: _332  and  _335
REMARK  137  A    between atoms: _335  and  _336
REMARK  138  A    between atoms: _339  and  _341
REMARK  139  A    between atoms: _341  and  _342
REMARK  140  A    between atoms: _345  and  _347
REMARK  141  A    between atoms: _347  and  _348
REMARK  142  A    between atoms: _347  and  _350
REMARK  143  A    between atoms: _350  and  _351
REMARK  144  A    between atoms: _356  and  _357
REMARK  145  A    between atoms: _359  and  _361
REMARK  146  A    between atoms: _361  and  _362
REMARK  147  A    between atoms: _361  and  _364
REMARK  148  A    between atoms: _364  and  _365
REMARK  149  A    between atoms: _365  and  _366
REMARK  150  A    between atoms: _369  and  _371
REMARK  151  A    between atoms: _371  and  _372
REMARK  152  A    between atoms: _371  and  _374
REMARK  153  A    between atoms: _374  and  _375
REMARK  154  A    between atoms: _378  and  _380
REMARK  155  A    between atoms: _380  and  _381
REMARK  156  A    between atoms: _384  and  _386
REMARK  157  A    between atoms: _386  and  _387
REMARK  158  A    between atoms: _386  and  _389
REMARK  159  A    between atoms: _389  and  _390
REMARK  160  A    between atoms: _390  and  _391
REMARK  161  A    between atoms: _391  and  _392
REMARK  162  A    between atoms: _401  and  _403
REMARK  163  A    between atoms: _403  and  _404
REMARK  164  A    between atoms: _403  and  _406
REMARK  165  A    between atoms: _406  and  _407
REMARK  166  A    between atoms: _417  and  _419
REMARK  167  A    between atoms: _419  and  _420
REMARK  168  A    between atoms: _419  and  _422
REMARK  169  A    between atoms: _422  and  _423
REMARK  170  A    between atoms: _428  and  _429
REMARK  171  A    between atoms: _431  and  _433
REMARK  172  A    between atoms: _433  and  _434
REMARK  173  A    between atoms: _433  and  _436
REMARK  174  A    between atoms: _436  and  _437
REMARK  175  A    between atoms: _442  and  _443
REMARK  176  A    between atoms: _445  and  _447
REMARK  177  A    between atoms: _447  and  _448
REMARK  178  A    between atoms: _447  and  _450
REMARK  179  A    between atoms: _450  and  _451
REMARK  180  A    between atoms: _451  and  _452
REMARK  181  A    between atoms: _452  and  _453
REMARK  182  A    between atoms: _453  and  _454
REMARK  183  A    between atoms: _458  and  _460
REMARK  184  A    between atoms: _460  and  _461
REMARK  185  A    between atoms: _460  and  _463
REMARK  186  A    between atoms: _463  and  _464
REMARK  187  A    between atoms: _467  and  _469
REMARK  188  A    between atoms: _469  and  _470
REMARK  189  A    between atoms: _469  and  _472
REMARK  190  A    between atoms: _475  and  _477
REMARK  191  A    between atoms: _477  and  _478
REMARK  192  A    between atoms: _477  and  _480
REMARK  193  A    between atoms: _480  and  _481
REMARK  194  A    between atoms: _484  and  _486
REMARK  195  A    between atoms: _486  and  _487
REMARK  196  A    between atoms: _486  and  _489
REMARK  197  A    between atoms: _489  and  _490
REMARK  198  A    between atoms: _492  and  _494
REMARK  199  A    between atoms: _494  and  _495
REMARK  200  A    between atoms: _497  and  _499
REMARK  201  A    between atoms: _499  and  _500
REMARK  202  A    between atoms: _499  and  _502
REMARK  203  A    between atoms: _502  and  _503
REMARK  204  A    between atoms: _506  and  _508
REMARK  205  A    between atoms: _508  and  _509
REMARK  206  A    between atoms: _508  and  _511
REMARK  207  A    between atoms: _511  and  _512
REMARK  208  A    between atoms: _515  and  _517
REMARK  209  A    between atoms: _517  and  _518
REMARK  210  A    between atoms: _517  and  _520
REMARK  211  A    between atoms: _520  and  _521
REMARK  212  A    between atoms: _526  and  _528
REMARK  213  A    between atoms: _528  and  _529
REMARK  214  A    between atoms: _528  and  _531
REMARK  215  A    between atoms: _531  and  _532
REMARK  216  A    between atoms: _532  and  _533
REMARK  217  A    between atoms: _533  and  _534
REMARK  218  A    between atoms: _543  and  _545
REMARK  219  A    between atoms: _545  and  _546
REMARK  220  A    between atoms: _545  and  _548
REMARK  221  A    between atoms: _548  and  _549
REMARK  222  A    between atoms: _549  and  _550
REMARK  223  A    between atoms: _550  and  _551
REMARK  224  A    between atoms: _560  and  _562
REMARK  225  A    between atoms: _562  and  _563
REMARK  226  A    between atoms: _562  and  _565
REMARK  227  A    between atoms: _565  and  _566
REMARK  228  A    between atoms: _568  and  _570
REMARK  229  A    between atoms: _570  and  _571
REMARK  230  A    between atoms: _570  and  _573
REMARK  231  A    between atoms: _573  and  _574
REMARK  232  A    between atoms: _574  and  _575
REMARK  233  A    between atoms: _580  and  _582
REMARK  234  A    between atoms: _582  and  _583
REMARK  235  A    between atoms: _582  and  _585
REMARK  236  A    between atoms: _585  and  _586
REMARK  237  A    between atoms: _588  and  _590
REMARK  238  A    between atoms: _590  and  _591
REMARK  239  A    between atoms: _590  and  _593
REMARK  240  A    between atoms: _593  and  _594
REMARK  241  A    between atoms: _596  and  _598
REMARK  242  A    between atoms: _598  and  _599
REMARK  243  A    between atoms: _598  and  _601
REMARK  244  A    between atoms: _601  and  _602
REMARK  245  A    between atoms: _605  and  _607
REMARK  246  A    between atoms: _607  and  _608
REMARK  247  A    between atoms: _607  and  _610
REMARK  248  A    between atoms: _610  and  _611
REMARK  249  A    between atoms: _614  and  _616
REMARK  250  A    between atoms: _616  and  _617
REMARK  251  A    between atoms: _616  and  _619
REMARK  252  A    between atoms: _622  and  _624
REMARK  253  A    between atoms: _624  and  _625
REMARK  254  A    between atoms: _627  and  _629
REMARK  255  A    between atoms: _629  and  _630
REMARK  256  A    between atoms: _633  and  _635
REMARK  257  A    between atoms: _635  and  _636
REMARK  258  A    between atoms: _635  and  _638
REMARK                            x       y       z     vdW  Elec       q    Type
REMARK                         _______ _______ _______ _____ _____    ______ ____
ROOT
ATOM      1  O   HOH     1      19.782  20.012  15.776  0.00  0.00    +0.000 OA
ENDROOT
TORSDOF 0
REMARK  Name = ../refined-set-2016/3lpk/3lpk_pocket.pdb
REMARK  258 active torsions:
REMARK  status: ('A' for Active; 'I' for Inactive)
REMARK    1  A    between atoms: _1  and  _3
REMARK    2  A    between atoms: _3  and  _4
REMARK    3  A    between atoms: _3  and  _6
REMARK    4  A    between atoms: _6  and  _7
REMARK    5  A    between atoms: _7  and  _8
REMARK    6  A    between atoms: _8  and  _9
REMARK    7  A    between atoms: _9  and  _10
REMARK    8  A    between atoms: _14  and  _16
REMARK    9  A    between atoms: _16  and  _17
REMARK   10  A    between atoms: _16  and  _19
REMARK   11  A    between atoms: _19  and  _20
REMARK   12  A    between atoms: _22  and  _24
REMARK   13  A    between atoms: _24  and  _25
REMARK   14  A    between atoms: _27  and  _29
REMARK   15  A    between atoms: _29  and  _30
REMARK   16  A    between atoms: _29  and  _32
REMARK   17  A    between atoms: _32  and  _33
REMARK   18  A    between atoms: _33  and  _34
REMARK   19  A    between atoms: _39  and  _41
REMARK   20  A    between atoms: _41  and  _42
REMARK   21  A    between atoms: _44  and  _46
REMARK   22  A    between atoms: _46  and  _47
REMARK   23  A    between atoms: _46  and  _49
REMARK   24  A    between atoms: _49  and  _50
REMARK   25  A    between atoms: _55  and  _56
REMARK   26  A    between atoms: _58  and  _60
REMARK   27  A    between atoms: _60  and  _61
REMARK   28  A    between atoms: _60  and  _63
REMARK   29  A    between atoms: _63  and  _64
REMARK   30  A    between atoms: _67  and  _69
REMARK   31  A    between atoms: _69  and  _70
REMARK   32  A    between atoms: _69  and  _72
REMARK   33  A    between atoms: _75  and  _77
REMARK   34  A    between atoms: _77  and  _78
REMARK   35  A    between atoms: _77  and  _80
REMARK   36  A    between atoms: _80  and  _81
REMARK   37  A    between atoms: _84  and  _86
REMARK   38  A    between atoms: _86  and  _87
REMARK   39  A    between atoms: _86  and  _89
REMARK   40  A    between atoms: _89  and  _90
REMARK   41  A    between atoms: _93  and  _95
REMARK   42  A    between atoms: _95  and  _96
REMARK   43  A    between atoms: _98  and  _100
REMARK   44  A    between atoms: _100  and  _101
REMARK   45  A    between atoms: _100  and  _103
REMARK   46  A    between atoms: _103  and  _104
REMARK   47  A    between atoms: _106  and  _108
REMARK   48  A    between atoms: _108  and  _109
REMARK   49  A    between atoms: _108  and  _111
REMARK   50  A    between atoms: _111  and  _112
REMARK   51  A    between atoms: _114  and  _116
REMARK   52  A    between atoms: _116  and  _117
REMARK   53  A    between atoms: _116  and  _119
REMARK   54  A    between atoms: _119  and  _120
REMARK   55  A    between atoms: _125  and  _127
REMARK   56  A    between atoms: _127  and  _128
REMARK   57  A    between atoms: _127  and  _130
REMARK   58  A    between atoms: _130  and  _131
REMARK   59  A    between atoms: _136  and  _137
REMARK   60  A    between atoms: _139  and  _141
REMARK   61  A    between atoms: _141  and  _142
REMARK   62  A    between atoms: _141  and  _144
REMARK   63  A    between atoms: _148  and  _149
REMARK   64  A    between atoms: _154  and  _156
REMARK   65  A    between atoms: _156  and  _157
REMARK   66  A    between atoms: _156  and  _159
REMARK   67  A    between atoms: _159  and  _160
REMARK   68  A    between atoms: _165  and  _166
REMARK   69  A    between atoms: _168  and  _170
REMARK   70  A    between atoms: _170  and  _171
REMARK   71  A    between atoms: _170  and  _173
REMARK   72  A    between atoms: _173  and  _174
REMARK   73  A    between atoms: _177  and  _179
REMARK   74  A    between atoms: _179  and  _180
REMARK   75  A    between atoms: _179  and  _182
REMARK   76  A    between atoms: _182  and  _183
REMARK   77  A    between atoms: _183  and  _184
REMARK   78  A    between atoms: _189  and  _191
REMARK   79  A    between atoms: _191  and  _192
REMARK   80  A    between atoms: _194  and  _196
REMARK   81  A    between atoms: _196  and  _197
REMARK   82  A    between atoms: _196  and  _199
REMARK   83  A    between atoms: _199  and  _200
REMARK   84  A    between atoms: _200  and  _201
REMARK   85  A    between atoms: _201  and  _202
REMARK   86  A    between atoms: _202  and  _203
REMARK   87  A    between atoms: _207  and  _209
REMARK   88  A    between atoms: _209  and  _210
REMARK   89  A    between atoms: _209  and  _212
REMARK   90  A    between atoms: _212  and  _213
REMARK   91  A    between atoms: _223  and  _225
REMARK   92  A    between atoms: _225  and  _226
REMARK   93  A    between atoms: _225  and  _228
REMARK   94  A    between atoms: _228  and  _229
REMARK   95  A    between atoms: _232  and  _234
REMARK   96  A    between atoms: _234  and  _235
REMARK   97  A    between atoms: _234  and  _237
REMARK   98  A    between atoms: _237  and  _238
REMARK   99  A    between atoms: _238  and  _239
REMARK  100  A    between atoms: _239  and  _240
REMARK  101  A    between atoms: _240  and  _241
REMARK  102  A    between atoms: _245  and  _247
REMARK  103  A    between atoms: _247  and  _248
REMARK  104  A    between atoms: _247  and  _250
REMARK  105  A    between atoms: _250  and  _251
REMARK  106  A    between atoms: _257  and  _259
REMARK  107  A    between atoms: _259  and  _260
REMARK  108  A    between atoms: _259  and  _262
REMARK  109  A    between atoms: _262  and  _263
REMARK  110  A    between atoms: _269  and  _271
REMARK  111  A    between atoms: _271  and  _272
REMARK  112  A    between atoms: _271  and  _274
REMARK  113  A    between atoms: _274  and  _275
REMARK  114  A    between atoms: _278  and  _280
REMARK  115  A    between atoms: _280  and  _281
REMARK  116  A    between atoms: _280  and  _283
REMARK  117  A    between atoms: _283  and  _284
REMARK  118  A    between atoms: _286  and  _288
REMARK  119  A    between atoms: _288  and  _289
REMARK  120  A    between atoms: _288  and  _291
REMARK  121  A    between atoms: _291  and  _292
REMARK  122  A    between atoms: _302  and  _304
REMARK  123  A    between atoms: _304  and  _305
REMARK  124  A    between atoms: _307  and  _309
REMARK  125  A    between atoms: _309  and  _310
REMARK  126  A    between atoms: _309  and  _312
REMARK  127  A    between atoms: _312  and  _313
REMARK  128  A    between atoms: _316  and  _318
REMARK  129  A    between atoms: _318  and  _319
REMARK  130  A    between atoms: _318  and  _321
REMARK  131  A    between atoms: _321  and  _322
REMARK  132  A    between atoms: _325  and  _327
REMARK  133  A    between atoms: _327  and  _328
REMARK  134  A    between atoms: _330  and  _332
REMARK  135  A    between atoms: _332  and  _333
REMARK  136  A    between atoms: _332  and  _335
REMARK  137  A    between atoms: _335  and  _336
REMARK  138  A    between atoms: _339  and  _341
REMARK  139  A    between atoms: _341  and  _342
REMARK  140  A    between atoms: _345  and  _347
REMARK  141  A    between atoms: _347  and  _348
REMARK  142  A    between atoms: _347  and  _350
REMARK  143  A    between atoms: _350  and  _351
REMARK  144  A    between atoms: _356  and  _357
REMARK  145  A    between atoms: _359  and  _361
REMARK  146  A    between atoms: _361  and  _362
REMARK  147  A    between atoms: _361  and  _364
REMARK  148  A    between atoms: _364  and  _365
REMARK  149  A    between atoms: _365  and  _366
REMARK  150  A    between atoms: _369  and  _371
REMARK  151  A    between atoms: _371  and  _372
REMARK  152  A    between atoms: _371  and  _374
REMARK  153  A    between atoms: _374  and  _375
REMARK  154  A    between atoms: _378  and  _380
REMARK  155  A    between atoms: _380  and  _381
REMARK  156  A    between atoms: _384  and  _386
REMARK  157  A    between atoms: _386  and  _387
REMARK  158  A    between atoms: _386  and  _389
REMARK  159  A    between atoms: _389  and  _390
REMARK  160  A    between atoms: _390  and  _391
REMARK  161  A    between atoms: _391  and  _392
REMARK  162  A    between atoms: _401  and  _403
REMARK  163  A    between atoms: _403  and  _404
REMARK  164  A    between atoms: _403  and  _406
REMARK  165  A    between atoms: _406  and  _407
REMARK  166  A    between atoms: _417  and  _419
REMARK  167  A    between atoms: _419  and  _420
REMARK  168  A    between atoms: _419  and  _422
REMARK  169  A    between atoms: _422  and  _423
REMARK  170  A    between atoms: _428  and  _429
REMARK  171  A    between atoms: _431  and  _433
REMARK  172  A    between atoms: _433  and  _434
REMARK  173  A    between atoms: _433  and  _436
REMARK  174  A    between atoms: _436  and  _437
REMARK  175  A    between atoms: _442  and  _443
REMARK  176  A    between atoms: _445  and  _447
REMARK  177  A    between atoms: _447  and  _448
REMARK  178  A    between atoms: _447  and  _450
REMARK  179  A    between atoms: _450  and  _451
REMARK  180  A    between atoms: _451  and  _452
REMARK  181  A    between atoms: _452  and  _453
REMARK  182  A    between atoms: _453  and  _454
REMARK  183  A    between atoms: _458  and  _460
REMARK  184  A    between atoms: _460  and  _461
REMARK  185  A    between atoms: _460  and  _463
REMARK  186  A    between atoms: _463  and  _464
REMARK  187  A    between atoms: _467  and  _469
REMARK  188  A    between atoms: _469  and  _470
REMARK  189  A    between atoms: _469  and  _472
REMARK  190  A    between atoms: _475  and  _477
REMARK  191  A    between atoms: _477  and  _478
REMARK  192  A    between atoms: _477  and  _480
REMARK  193  A    between atoms: _480  and  _481
REMARK  194  A    between atoms: _484  and  _486
REMARK  195  A    between atoms: _486  and  _487
REMARK  196  A    between atoms: _486  and  _489
REMARK  197  A    between atoms: _489  and  _490
REMARK  198  A    between atoms: _492  and  _494
REMARK  199  A    between atoms: _494  and  _495
REMARK  200  A    between atoms: _497  and  _499
REMARK  201  A    between atoms: _499  and  _500
REMARK  202  A    between atoms: _499  and  _502
REMARK  203  A    between atoms: _502  and  _503
REMARK  204  A    between atoms: _506  and  _508
REMARK  205  A    between atoms: _508  and  _509
REMARK  206  A    between atoms: _508  and  _511
REMARK  207  A    between atoms: _511  and  _512
REMARK  208  A    between atoms: _515  and  _517
REMARK  209  A    between atoms: _517  and  _518
REMARK  210  A    between atoms: _517  and  _520
REMARK  211  A    between atoms: _520  and  _521
REMARK  212  A    between atoms: _526  and  _528
REMARK  213  A    between atoms: _528  and  _529
REMARK  214  A    between atoms: _528  and  _531
REMARK  215  A    between atoms: _531  and  _532
REMARK  216  A    between atoms: _532  and  _533
REMARK  217  A    between atoms: _533  and  _534
REMARK  218  A    between atoms: _543  and  _545
REMARK  219  A    between atoms: _545  and  _546
REMARK  220  A    between atoms: _545  and  _548
REMARK  221  A    between atoms: _548  and  _549
REMARK  222  A    between atoms: _549  and  _550
REMARK  223  A    between atoms: _550  and  _551
REMARK  224  A    between atoms: _560  and  _562
REMARK  225  A    between atoms: _562  and  _563
REMARK  226  A    between atoms: _562  and  _565
REMARK  227  A    between atoms: _565  and  _566
REMARK  228  A    between atoms: _568  and  _570
REMARK  229  A    between atoms: _570  and  _571
REMARK  230  A    between atoms: _570  and  _573
REMARK  231  A    between atoms: _573  and  _574
REMARK  232  A    between atoms: _574  and  _575
REMARK  233  A    between atoms: _580  and  _582
REMARK  234  A    between atoms: _582  and  _583
REMARK  235  A    between atoms: _582  and  _585
REMARK  236  A    between atoms: _585  and  _586
REMARK  237  A    between atoms: _588  and  _590
REMARK  238  A    between atoms: _590  and  _591
REMARK  239  A    between atoms: _590  and  _593
REMARK  240  A    between atoms: _593  and  _594
REMARK  241  A    between atoms: _596  and  _598
REMARK  242  A    between atoms: _598  and  _599
REMARK  243  A    between atoms: _598  and  _601
REMARK  244  A    between atoms: _601  and  _602
REMARK  245  A    between atoms: _605  and  _607
REMARK  246  A    between atoms: _607  and  _608
REMARK  247  A    between atoms: _607  and  _610
REMARK  248  A    between atoms: _610  and  _611
REMARK  249  A    between atoms: _614  and  _616
REMARK  250  A    between atoms: _616  and  _617
REMARK  251  A    between atoms: _616  and  _619
REMARK  252  A    between atoms: _622  and  _624
REMARK  253  A    between atoms: _624  and  _625
REMARK  254  A    between atoms: _627  and  _629
REMARK  255  A    between atoms: _629  and  _630
REMARK  256  A    between atoms: _633  and  _635
REMARK  257  A    between atoms: _635  and  _636
REMARK  258  A    between atoms: _635  and  _638
REMARK                            x       y       z     vdW  Elec       q    Type
REMARK                         _______ _______ _______ _____ _____    ______ ____
ROOT
ATOM      1  O   HOH     1      17.974  18.500  18.683  0.00  0.00    +0.000 OA
ENDROOT
TORSDOF 0
REMARK  Name = ../refined-set-2016/3lpk/3lpk_pocket.pdb
REMARK  258 active torsions:
REMARK  status: ('A' for Active; 'I' for Inactive)
REMARK    1  A    between atoms: _1  and  _3
REMARK    2  A    between atoms: _3  and  _4
REMARK    3  A    between atoms: _3  and  _6
REMARK    4  A    between atoms: _6  and  _7
REMARK    5  A    between atoms: _7  and  _8
REMARK    6  A    between atoms: _8  and  _9
REMARK    7  A    between atoms: _9  and  _10
REMARK    8  A    between atoms: _14  and  _16
REMARK    9  A    between atoms: _16  and  _17
REMARK   10  A    between atoms: _16  and  _19
REMARK   11  A    between atoms: _19  and  _20
REMARK   12  A    between atoms: _22  and  _24
REMARK   13  A    between atoms: _24  and  _25
REMARK   14  A    between atoms: _27  and  _29
REMARK   15  A    between atoms: _29  and  _30
REMARK   16  A    between atoms: _29  and  _32
REMARK   17  A    between atoms: _32  and  _33
REMARK   18  A    between atoms: _33  and  _34
REMARK   19  A    between atoms: _39  and  _41
REMARK   20  A    between atoms: _41  and  _42
REMARK   21  A    between atoms: _44  and  _46
REMARK   22  A    between atoms: _46  and  _47
REMARK   23  A    between atoms: _46  and  _49
REMARK   24  A    between atoms: _49  and  _50
REMARK   25  A    between atoms: _55  and  _56
REMARK   26  A    between atoms: _58  and  _60
REMARK   27  A    between atoms: _60  and  _61
REMARK   28  A    between atoms: _60  and  _63
REMARK   29  A    between atoms: _63  and  _64
REMARK   30  A    between atoms: _67  and  _69
REMARK   31  A    between atoms: _69  and  _70
REMARK   32  A    between atoms: _69  and  _72
REMARK   33  A    between atoms: _75  and  _77
REMARK   34  A    between atoms: _77  and  _78
REMARK   35  A    between atoms: _77  and  _80
REMARK   36  A    between atoms: _80  and  _81
REMARK   37  A    between atoms: _84  and  _86
REMARK   38  A    between atoms: _86  and  _87
REMARK   39  A    between atoms: _86  and  _89
REMARK   40  A    between atoms: _89  and  _90
REMARK   41  A    between atoms: _93  and  _95
REMARK   42  A    between atoms: _95  and  _96
REMARK   43  A    between atoms: _98  and  _100
REMARK   44  A    between atoms: _100  and  _101
REMARK   45  A    between atoms: _100  and  _103
REMARK   46  A    between atoms: _103  and  _104
REMARK   47  A    between atoms: _106  and  _108
REMARK   48  A    between atoms: _108  and  _109
REMARK   49  A    between atoms: _108  and  _111
REMARK   50  A    between atoms: _111  and  _112
REMARK   51  A    between atoms: _114  and  _116
REMARK   52  A    between atoms: _116  and  _117
REMARK   53  A    between atoms: _116  and  _119
REMARK   54  A    between atoms: _119  and  _120
REMARK   55  A    between atoms: _125  and  _127
REMARK   56  A    between atoms: _127  and  _128
REMARK   57  A    between atoms: _127  and  _130
REMARK   58  A    between atoms: _130  and  _131
REMARK   59  A    between atoms: _136  and  _137
REMARK   60  A    between atoms: _139  and  _141
REMARK   61  A    between atoms: _141  and  _142
REMARK   62  A    between atoms: _141  and  _144
REMARK   63  A    between atoms: _148  and  _149
REMARK   64  A    between atoms: _154  and  _156
REMARK   65  A    between atoms: _156  and  _157
REMARK   66  A    between atoms: _156  and  _159
REMARK   67  A    between atoms: _159  and  _160
REMARK   68  A    between atoms: _165  and  _166
REMARK   69  A    between atoms: _168  and  _170
REMARK   70  A    between atoms: _170  and  _171
REMARK   71  A    between atoms: _170  and  _173
REMARK   72  A    between atoms: _173  and  _174
REMARK   73  A    between atoms: _177  and  _179
REMARK   74  A    between atoms: _179  and  _180
REMARK   75  A    between atoms: _179  and  _182
REMARK   76  A    between atoms: _182  and  _183
REMARK   77  A    between atoms: _183  and  _184
REMARK   78  A    between atoms: _189  and  _191
REMARK   79  A    between atoms: _191  and  _192
REMARK   80  A    between atoms: _194  and  _196
REMARK   81  A    between atoms: _196  and  _197
REMARK   82  A    between atoms: _196  and  _199
REMARK   83  A    between atoms: _199  and  _200
REMARK   84  A    between atoms: _200  and  _201
REMARK   85  A    between atoms: _201  and  _202
REMARK   86  A    between atoms: _202  and  _203
REMARK   87  A    between atoms: _207  and  _209
REMARK   88  A    between atoms: _209  and  _210
REMARK   89  A    between atoms: _209  and  _212
REMARK   90  A    between atoms: _212  and  _213
REMARK   91  A    between atoms: _223  and  _225
REMARK   92  A    between atoms: _225  and  _226
REMARK   93  A    between atoms: _225  and  _228
REMARK   94  A    between atoms: _228  and  _229
REMARK   95  A    between atoms: _232  and  _234
REMARK   96  A    between atoms: _234  and  _235
REMARK   97  A    between atoms: _234  and  _237
REMARK   98  A    between atoms: _237  and  _238
REMARK   99  A    between atoms: _238  and  _239
REMARK  100  A    between atoms: _239  and  _240
REMARK  101  A    between atoms: _240  and  _241
REMARK  102  A    between atoms: _245  and  _247
REMARK  103  A    between atoms: _247  and  _248
REMARK  104  A    between atoms: _247  and  _250
REMARK  105  A    between atoms: _250  and  _251
REMARK  106  A    between atoms: _257  and  _259
REMARK  107  A    between atoms: _259  and  _260
REMARK  108  A    between atoms: _259  and  _262
REMARK  109  A    between atoms: _262  and  _263
REMARK  110  A    between atoms: _269  and  _271
REMARK  111  A    between atoms: _271  and  _272
REMARK  112  A    between atoms: _271  and  _274
REMARK  113  A    between atoms: _274  and  _275
REMARK  114  A    between atoms: _278  and  _280
REMARK  115  A    between atoms: _280  and  _281
REMARK  116  A    between atoms: _280  and  _283
REMARK  117  A    between atoms: _283  and  _284
REMARK  118  A    between atoms: _286  and  _288
REMARK  119  A    between atoms: _288  and  _289
REMARK  120  A    between atoms: _288  and  _291
REMARK  121  A    between atoms: _291  and  _292
REMARK  122  A    between atoms: _302  and  _304
REMARK  123  A    between atoms: _304  and  _305
REMARK  124  A    between atoms: _307  and  _309
REMARK  125  A    between atoms: _309  and  _310
REMARK  126  A    between atoms: _309  and  _312
REMARK  127  A    between atoms: _312  and  _313
REMARK  128  A    between atoms: _316  and  _318
REMARK  129  A    between atoms: _318  and  _319
REMARK  130  A    between atoms: _318  and  _321
REMARK  131  A    between atoms: _321  and  _322
REMARK  132  A    between atoms: _325  and  _327
REMARK  133  A    between atoms: _327  and  _328
REMARK  134  A    between atoms: _330  and  _332
REMARK  135  A    between atoms: _332  and  _333
REMARK  136  A    between atoms: _332  and  _335
REMARK  137  A    between atoms: _335  and  _336
REMARK  138  A    between atoms: _339  and  _341
REMARK  139  A    between atoms: _341  and  _342
REMARK  140  A    between atoms: _345  and  _347
REMARK  141  A    between atoms: _347  and  _348
REMARK  142  A    between atoms: _347  and  _350
REMARK  143  A    between atoms: _350  and  _351
REMARK  144  A    between atoms: _356  and  _357
REMARK  145  A    between atoms: _359  and  _361
REMARK  146  A    between atoms: _361  and  _362
REMARK  147  A    between atoms: _361  and  _364
REMARK  148  A    between atoms: _364  and  _365
REMARK  149  A    between atoms: _365  and  _366
REMARK  150  A    between atoms: _369  and  _371
REMARK  151  A    between atoms: _371  and  _372
REMARK  152  A    between atoms: _371  and  _374
REMARK  153  A    between atoms: _374  and  _375
REMARK  154  A    between atoms: _378  and  _380
REMARK  155  A    between atoms: _380  and  _381
REMARK  156  A    between atoms: _384  and  _386
REMARK  157  A    between atoms: _386  and  _387
REMARK  158  A    between atoms: _386  and  _389
REMARK  159  A    between atoms: _389  and  _390
REMARK  160  A    between atoms: _390  and  _391
REMARK  161  A    between atoms: _391  and  _392
REMARK  162  A    between atoms: _401  and  _403
REMARK  163  A    between atoms: _403  and  _404
REMARK  164  A    between atoms: _403  and  _406
REMARK  165  A    between atoms: _406  and  _407
REMARK  166  A    between atoms: _417  and  _419
REMARK  167  A    between atoms: _419  and  _420
REMARK  168  A    between atoms: _419  and  _422
REMARK  169  A    between atoms: _422  and  _423
REMARK  170  A    between atoms: _428  and  _429
REMARK  171  A    between atoms: _431  and  _433
REMARK  172  A    between atoms: _433  and  _434
REMARK  173  A    between atoms: _433  and  _436
REMARK  174  A    between atoms: _436  and  _437
REMARK  175  A    between atoms: _442  and  _443
REMARK  176  A    between atoms: _445  and  _447
REMARK  177  A    between atoms: _447  and  _448
REMARK  178  A    between atoms: _447  and  _450
REMARK  179  A    between atoms: _450  and  _451
REMARK  180  A    between atoms: _451  and  _452
REMARK  181  A    between atoms: _452  and  _453
REMARK  182  A    between atoms: _453  and  _454
REMARK  183  A    between atoms: _458  and  _460
REMARK  184  A    between atoms: _460  and  _461
REMARK  185  A    between atoms: _460  and  _463
REMARK  186  A    between atoms: _463  and  _464
REMARK  187  A    between atoms: _467  and  _469
REMARK  188  A    between atoms: _469  and  _470
REMARK  189  A    between atoms: _469  and  _472
REMARK  190  A    between atoms: _475  and  _477
REMARK  191  A    between atoms: _477  and  _478
REMARK  192  A    between atoms: _477  and  _480
REMARK  193  A    between atoms: _480  and  _481
REMARK  194  A    between atoms: _484  and  _486
REMARK  195  A    between atoms: _486  and  _487
REMARK  196  A    between atoms: _486  and  _489
REMARK  197  A    between atoms: _489  and  _490
REMARK  198  A    between atoms: _492  and  _494
REMARK  199  A    between atoms: _494  and  _495
REMARK  200  A    between atoms: _497  and  _499
REMARK  201  A    between atoms: _499  and  _500
REMARK  202  A    between atoms: _499  and  _502
REMARK  203  A    between atoms: _502  and  _503
REMARK  204  A    between atoms: _506  and  _508
REMARK  205  A    between atoms: _508  and  _509
REMARK  206  A    between atoms: _508  and  _511
REMARK  207  A    between atoms: _511  and  _512
REMARK  208  A    between atoms: _515  and  _517
REMARK  209  A    between atoms: _517  and  _518
REMARK  210  A    between atoms: _517  and  _520
REMARK  211  A    between atoms: _520  and  _521
REMARK  212  A    between atoms: _526  and  _528
REMARK  213  A    between atoms: _528  and  _529
REMARK  214  A    between atoms: _528  and  _531
REMARK  215  A    between atoms: _531  and  _532
REMARK  216  A    between atoms: _532  and  _533
REMARK  217  A    between atoms: _533  and  _534
REMARK  218  A    between atoms: _543  and  _545
REMARK  219  A    between atoms: _545  and  _546
REMARK  220  A    between atoms: _545  and  _548
REMARK  221  A    between atoms: _548  and  _549
REMARK  222  A    between atoms: _549  and  _550
REMARK  223  A    between atoms: _550  and  _551
REMARK  224  A    between atoms: _560  and  _562
REMARK  225  A    between atoms: _562  and  _563
REMARK  226  A    between atoms: _562  and  _565
REMARK  227  A    between atoms: _565  and  _566
REMARK  228  A    between atoms: _568  and  _570
REMARK  229  A    between atoms: _570  and  _571
REMARK  230  A    between atoms: _570  and  _573
REMARK  231  A    between atoms: _573  and  _574
REMARK  232  A    between atoms: _574  and  _575
REMARK  233  A    between atoms: _580  and  _582
REMARK  234  A    between atoms: _582  and  _583
REMARK  235  A    between atoms: _582  and  _585
REMARK  236  A    between atoms: _585  and  _586
REMARK  237  A    between atoms: _588  and  _590
REMARK  238  A    between atoms: _590  and  _591
REMARK  239  A    between atoms: _590  and  _593
REMARK  240  A    between atoms: _593  and  _594
REMARK  241  A    between atoms: _596  and  _598
REMARK  242  A    between atoms: _598  and  _599
REMARK  243  A    between atoms: _598  and  _601
REMARK  244  A    between atoms: _601  and  _602
REMARK  245  A    between atoms: _605  and  _607
REMARK  246  A    between atoms: _607  and  _608
REMARK  247  A    between atoms: _607  and  _610
REMARK  248  A    between atoms: _610  and  _611
REMARK  249  A    between atoms: _614  and  _616
REMARK  250  A    between atoms: _616  and  _617
REMARK  251  A    between atoms: _616  and  _619
REMARK  252  A    between atoms: _622  and  _624
REMARK  253  A    between atoms: _624  and  _625
REMARK  254  A    between atoms: _627  and  _629
REMARK  255  A    between atoms: _629  and  _630
REMARK  256  A    between atoms: _633  and  _635
REMARK  257  A    between atoms: _635  and  _636
REMARK  258  A    between atoms: _635  and  _638
REMARK                            x       y       z     vdW  Elec       q    Type
REMARK                         _______ _______ _______ _____ _____    ______ ____
ROOT
ATOM      1  O   HOH     1      13.083  11.665  29.408  0.00  0.00    +0.000 OA
ENDROOT
TORSDOF 0
REMARK  Name = ../refined-set-2016/3lpk/3lpk_pocket.pdb
REMARK  258 active torsions:
REMARK  status: ('A' for Active; 'I' for Inactive)
REMARK    1  A    between atoms: _1  and  _3
REMARK    2  A    between atoms: _3  and  _4
REMARK    3  A    between atoms: _3  and  _6
REMARK    4  A    between atoms: _6  and  _7
REMARK    5  A    between atoms: _7  and  _8
REMARK    6  A    between atoms: _8  and  _9
REMARK    7  A    between atoms: _9  and  _10
REMARK    8  A    between atoms: _14  and  _16
REMARK    9  A    between atoms: _16  and  _17
REMARK   10  A    between atoms: _16  and  _19
REMARK   11  A    between atoms: _19  and  _20
REMARK   12  A    between atoms: _22  and  _24
REMARK   13  A    between atoms: _24  and  _25
REMARK   14  A    between atoms: _27  and  _29
REMARK   15  A    between atoms: _29  and  _30
REMARK   16  A    between atoms: _29  and  _32
REMARK   17  A    between atoms: _32  and  _33
REMARK   18  A    between atoms: _33  and  _34
REMARK   19  A    between atoms: _39  and  _41
REMARK   20  A    between atoms: _41  and  _42
REMARK   21  A    between atoms: _44  and  _46
REMARK   22  A    between atoms: _46  and  _47
REMARK   23  A    between atoms: _46  and  _49
REMARK   24  A    between atoms: _49  and  _50
REMARK   25  A    between atoms: _55  and  _56
REMARK   26  A    between atoms: _58  and  _60
REMARK   27  A    between atoms: _60  and  _61
REMARK   28  A    between atoms: _60  and  _63
REMARK   29  A    between atoms: _63  and  _64
REMARK   30  A    between atoms: _67  and  _69
REMARK   31  A    between atoms: _69  and  _70
REMARK   32  A    between atoms: _69  and  _72
REMARK   33  A    between atoms: _75  and  _77
REMARK   34  A    between atoms: _77  and  _78
REMARK   35  A    between atoms: _77  and  _80
REMARK   36  A    between atoms: _80  and  _81
REMARK   37  A    between atoms: _84  and  _86
REMARK   38  A    between atoms: _86  and  _87
REMARK   39  A    between atoms: _86  and  _89
REMARK   40  A    between atoms: _89  and  _90
REMARK   41  A    between atoms: _93  and  _95
REMARK   42  A    between atoms: _95  and  _96
REMARK   43  A    between atoms: _98  and  _100
REMARK   44  A    between atoms: _100  and  _101
REMARK   45  A    between atoms: _100  and  _103
REMARK   46  A    between atoms: _103  and  _104
REMARK   47  A    between atoms: _106  and  _108
REMARK   48  A    between atoms: _108  and  _109
REMARK   49  A    between atoms: _108  and  _111
REMARK   50  A    between atoms: _111  and  _112
REMARK   51  A    between atoms: _114  and  _116
REMARK   52  A    between atoms: _116  and  _117
REMARK   53  A    between atoms: _116  and  _119
REMARK   54  A    between atoms: _119  and  _120
REMARK   55  A    between atoms: _125  and  _127
REMARK   56  A    between atoms: _127  and  _128
REMARK   57  A    between atoms: _127  and  _130
REMARK   58  A    between atoms: _130  and  _131
REMARK   59  A    between atoms: _136  and  _137
REMARK   60  A    between atoms: _139  and  _141
REMARK   61  A    between atoms: _141  and  _142
REMARK   62  A    between atoms: _141  and  _144
REMARK   63  A    between atoms: _148  and  _149
REMARK   64  A    between atoms: _154  and  _156
REMARK   65  A    between atoms: _156  and  _157
REMARK   66  A    between atoms: _156  and  _159
REMARK   67  A    between atoms: _159  and  _160
REMARK   68  A    between atoms: _165  and  _166
REMARK   69  A    between atoms: _168  and  _170
REMARK   70  A    between atoms: _170  and  _171
REMARK   71  A    between atoms: _170  and  _173
REMARK   72  A    between atoms: _173  and  _174
REMARK   73  A    between atoms: _177  and  _179
REMARK   74  A    between atoms: _179  and  _180
REMARK   75  A    between atoms: _179  and  _182
REMARK   76  A    between atoms: _182  and  _183
REMARK   77  A    between atoms: _183  and  _184
REMARK   78  A    between atoms: _189  and  _191
REMARK   79  A    between atoms: _191  and  _192
REMARK   80  A    between atoms: _194  and  _196
REMARK   81  A    between atoms: _196  and  _197
REMARK   82  A    between atoms: _196  and  _199
REMARK   83  A    between atoms: _199  and  _200
REMARK   84  A    between atoms: _200  and  _201
REMARK   85  A    between atoms: _201  and  _202
REMARK   86  A    between atoms: _202  and  _203
REMARK   87  A    between atoms: _207  and  _209
REMARK   88  A    between atoms: _209  and  _210
REMARK   89  A    between atoms: _209  and  _212
REMARK   90  A    between atoms: _212  and  _213
REMARK   91  A    between atoms: _223  and  _225
REMARK   92  A    between atoms: _225  and  _226
REMARK   93  A    between atoms: _225  and  _228
REMARK   94  A    between atoms: _228  and  _229
REMARK   95  A    between atoms: _232  and  _234
REMARK   96  A    between atoms: _234  and  _235
REMARK   97  A    between atoms: _234  and  _237
REMARK   98  A    between atoms: _237  and  _238
REMARK   99  A    between atoms: _238  and  _239
REMARK  100  A    between atoms: _239  and  _240
REMARK  101  A    between atoms: _240  and  _241
REMARK  102  A    between atoms: _245  and  _247
REMARK  103  A    between atoms: _247  and  _248
REMARK  104  A    between atoms: _247  and  _250
REMARK  105  A    between atoms: _250  and  _251
REMARK  106  A    between atoms: _257  and  _259
REMARK  107  A    between atoms: _259  and  _260
REMARK  108  A    between atoms: _259  and  _262
REMARK  109  A    between atoms: _262  and  _263
REMARK  110  A    between atoms: _269  and  _271
REMARK  111  A    between atoms: _271  and  _272
REMARK  112  A    between atoms: _271  and  _274
REMARK  113  A    between atoms: _274  and  _275
REMARK  114  A    between atoms: _278  and  _280
REMARK  115  A    between atoms: _280  and  _281
REMARK  116  A    between atoms: _280  and  _283
REMARK  117  A    between atoms: _283  and  _284
REMARK  118  A    between atoms: _286  and  _288
REMARK  119  A    between atoms: _288  and  _289
REMARK  120  A    between atoms: _288  and  _291
REMARK  121  A    between atoms: _291  and  _292
REMARK  122  A    between atoms: _302  and  _304
REMARK  123  A    between atoms: _304  and  _305
REMARK  124  A    between atoms: _307  and  _309
REMARK  125  A    between atoms: _309  and  _310
REMARK  126  A    between atoms: _309  and  _312
REMARK  127  A    between atoms: _312  and  _313
REMARK  128  A    between atoms: _316  and  _318
REMARK  129  A    between atoms: _318  and  _319
REMARK  130  A    between atoms: _318  and  _321
REMARK  131  A    between atoms: _321  and  _322
REMARK  132  A    between atoms: _325  and  _327
REMARK  133  A    between atoms: _327  and  _328
REMARK  134  A    between atoms: _330  and  _332
REMARK  135  A    between atoms: _332  and  _333
REMARK  136  A    between atoms: _332  and  _335
REMARK  137  A    between atoms: _335  and  _336
REMARK  138  A    between atoms: _339  and  _341
REMARK  139  A    between atoms: _341  and  _342
REMARK  140  A    between atoms: _345  and  _347
REMARK  141  A    between atoms: _347  and  _348
REMARK  142  A    between atoms: _347  and  _350
REMARK  143  A    between atoms: _350  and  _351
REMARK  144  A    between atoms: _356  and  _357
REMARK  145  A    between atoms: _359  and  _361
REMARK  146  A    between atoms: _361  and  _362
REMARK  147  A    between atoms: _361  and  _364
REMARK  148  A    between atoms: _364  and  _365
REMARK  149  A    between atoms: _365  and  _366
REMARK  150  A    between atoms: _369  and  _371
REMARK  151  A    between atoms: _371  and  _372
REMARK  152  A    between atoms: _371  and  _374
REMARK  153  A    between atoms: _374  and  _375
REMARK  154  A    between atoms: _378  and  _380
REMARK  155  A    between atoms: _380  and  _381
REMARK  156  A    between atoms: _384  and  _386
REMARK  157  A    between atoms: _386  and  _387
REMARK  158  A    between atoms: _386  and  _389
REMARK  159  A    between atoms: _389  and  _390
REMARK  160  A    between atoms: _390  and  _391
REMARK  161  A    between atoms: _391  and  _392
REMARK  162  A    between atoms: _401  and  _403
REMARK  163  A    between atoms: _403  and  _404
REMARK  164  A    between atoms: _403  and  _406
REMARK  165  A    between atoms: _406  and  _407
REMARK  166  A    between atoms: _417  and  _419
REMARK  167  A    between atoms: _419  and  _420
REMARK  168  A    between atoms: _419  and  _422
REMARK  169  A    between atoms: _422  and  _423
REMARK  170  A    between atoms: _428  and  _429
REMARK  171  A    between atoms: _431  and  _433
REMARK  172  A    between atoms: _433  and  _434
REMARK  173  A    between atoms: _433  and  _436
REMARK  174  A    between atoms: _436  and  _437
REMARK  175  A    between atoms: _442  and  _443
REMARK  176  A    between atoms: _445  and  _447
REMARK  177  A    between atoms: _447  and  _448
REMARK  178  A    between atoms: _447  and  _450
REMARK  179  A    between atoms: _450  and  _451
REMARK  180  A    between atoms: _451  and  _452
REMARK  181  A    between atoms: _452  and  _453
REMARK  182  A    between atoms: _453  and  _454
REMARK  183  A    between atoms: _458  and  _460
REMARK  184  A    between atoms: _460  and  _461
REMARK  185  A    between atoms: _460  and  _463
REMARK  186  A    between atoms: _463  and  _464
REMARK  187  A    between atoms: _467  and  _469
REMARK  188  A    between atoms: _469  and  _470
REMARK  189  A    between atoms: _469  and  _472
REMARK  190  A    between atoms: _475  and  _477
REMARK  191  A    between atoms: _477  and  _478
REMARK  192  A    between atoms: _477  and  _480
REMARK  193  A    between atoms: _480  and  _481
REMARK  194  A    between atoms: _484  and  _486
REMARK  195  A    between atoms: _486  and  _487
REMARK  196  A    between atoms: _486  and  _489
REMARK  197  A    between atoms: _489  and  _490
REMARK  198  A    between atoms: _492  and  _494
REMARK  199  A    between atoms: _494  and  _495
REMARK  200  A    between atoms: _497  and  _499
REMARK  201  A    between atoms: _499  and  _500
REMARK  202  A    between atoms: _499  and  _502
REMARK  203  A    between atoms: _502  and  _503
REMARK  204  A    between atoms: _506  and  _508
REMARK  205  A    between atoms: _508  and  _509
REMARK  206  A    between atoms: _508  and  _511
REMARK  207  A    between atoms: _511  and  _512
REMARK  208  A    between atoms: _515  and  _517
REMARK  209  A    between atoms: _517  and  _518
REMARK  210  A    between atoms: _517  and  _520
REMARK  211  A    between atoms: _520  and  _521
REMARK  212  A    between atoms: _526  and  _528
REMARK  213  A    between atoms: _528  and  _529
REMARK  214  A    between atoms: _528  and  _531
REMARK  215  A    between atoms: _531  and  _532
REMARK  216  A    between atoms: _532  and  _533
REMARK  217  A    between atoms: _533  and  _534
REMARK  218  A    between atoms: _543  and  _545
REMARK  219  A    between atoms: _545  and  _546
REMARK  220  A    between atoms: _545  and  _548
REMARK  221  A    between atoms: _548  and  _549
REMARK  222  A    between atoms: _549  and  _550
REMARK  223  A    between atoms: _550  and  _551
REMARK  224  A    between atoms: _560  and  _562
REMARK  225  A    between atoms: _562  and  _563
REMARK  226  A    between atoms: _562  and  _565
REMARK  227  A    between atoms: _565  and  _566
REMARK  228  A    between atoms: _568  and  _570
REMARK  229  A    between atoms: _570  and  _571
REMARK  230  A    between atoms: _570  and  _573
REMARK  231  A    between atoms: _573  and  _574
REMARK  232  A    between atoms: _574  and  _575
REMARK  233  A    between atoms: _580  and  _582
REMARK  234  A    between atoms: _582  and  _583
REMARK  235  A    between atoms: _582  and  _585
REMARK  236  A    between atoms: _585  and  _586
REMARK  237  A    between atoms: _588  and  _590
REMARK  238  A    between atoms: _590  and  _591
REMARK  239  A    between atoms: _590  and  _593
REMARK  240  A    between atoms: _593  and  _594
REMARK  241  A    between atoms: _596  and  _598
REMARK  242  A    between atoms: _598  and  _599
REMARK  243  A    between atoms: _598  and  _601
REMARK  244  A    between atoms: _601  and  _602
REMARK  245  A    between atoms: _605  and  _607
REMARK  246  A    between atoms: _607  and  _608
REMARK  247  A    between atoms: _607  and  _610
REMARK  248  A    between atoms: _610  and  _611
REMARK  249  A    between atoms: _614  and  _616
REMARK  250  A    between atoms: _616  and  _617
REMARK  251  A    between atoms: _616  and  _619
REMARK  252  A    between atoms: _622  and  _624
REMARK  253  A    between atoms: _624  and  _625
REMARK  254  A    between atoms: _627  and  _629
REMARK  255  A    between atoms: _629  and  _630
REMARK  256  A    between atoms: _633  and  _635
REMARK  257  A    between atoms: _635  and  _636
REMARK  258  A    between atoms: _635  and  _638
REMARK                            x       y       z     vdW  Elec       q    Type
REMARK                         _______ _______ _______ _____ _____    ______ ____
ROOT
ATOM      1  O   HOH     1       9.993  10.092  27.168  0.00  0.00    +0.000 OA
ENDROOT
TORSDOF 0
REMARK  Name = ../refined-set-2016/3lpk/3lpk_pocket.pdb
REMARK  258 active torsions:
REMARK  status: ('A' for Active; 'I' for Inactive)
REMARK    1  A    between atoms: _1  and  _3
REMARK    2  A    between atoms: _3  and  _4
REMARK    3  A    between atoms: _3  and  _6
REMARK    4  A    between atoms: _6  and  _7
REMARK    5  A    between atoms: _7  and  _8
REMARK    6  A    between atoms: _8  and  _9
REMARK    7  A    between atoms: _9  and  _10
REMARK    8  A    between atoms: _14  and  _16
REMARK    9  A    between atoms: _16  and  _17
REMARK   10  A    between atoms: _16  and  _19
REMARK   11  A    between atoms: _19  and  _20
REMARK   12  A    between atoms: _22  and  _24
REMARK   13  A    between atoms: _24  and  _25
REMARK   14  A    between atoms: _27  and  _29
REMARK   15  A    between atoms: _29  and  _30
REMARK   16  A    between atoms: _29  and  _32
REMARK   17  A    between atoms: _32  and  _33
REMARK   18  A    between atoms: _33  and  _34
REMARK   19  A    between atoms: _39  and  _41
REMARK   20  A    between atoms: _41  and  _42
REMARK   21  A    between atoms: _44  and  _46
REMARK   22  A    between atoms: _46  and  _47
REMARK   23  A    between atoms: _46  and  _49
REMARK   24  A    between atoms: _49  and  _50
REMARK   25  A    between atoms: _55  and  _56
REMARK   26  A    between atoms: _58  and  _60
REMARK   27  A    between atoms: _60  and  _61
REMARK   28  A    between atoms: _60  and  _63
REMARK   29  A    between atoms: _63  and  _64
REMARK   30  A    between atoms: _67  and  _69
REMARK   31  A    between atoms: _69  and  _70
REMARK   32  A    between atoms: _69  and  _72
REMARK   33  A    between atoms: _75  and  _77
REMARK   34  A    between atoms: _77  and  _78
REMARK   35  A    between atoms: _77  and  _80
REMARK   36  A    between atoms: _80  and  _81
REMARK   37  A    between atoms: _84  and  _86
REMARK   38  A    between atoms: _86  and  _87
REMARK   39  A    between atoms: _86  and  _89
REMARK   40  A    between atoms: _89  and  _90
REMARK   41  A    between atoms: _93  and  _95
REMARK   42  A    between atoms: _95  and  _96
REMARK   43  A    between atoms: _98  and  _100
REMARK   44  A    between atoms: _100  and  _101
REMARK   45  A    between atoms: _100  and  _103
REMARK   46  A    between atoms: _103  and  _104
REMARK   47  A    between atoms: _106  and  _108
REMARK   48  A    between atoms: _108  and  _109
REMARK   49  A    between atoms: _108  and  _111
REMARK   50  A    between atoms: _111  and  _112
REMARK   51  A    between atoms: _114  and  _116
REMARK   52  A    between atoms: _116  and  _117
REMARK   53  A    between atoms: _116  and  _119
REMARK   54  A    between atoms: _119  and  _120
REMARK   55  A    between atoms: _125  and  _127
REMARK   56  A    between atoms: _127  and  _128
REMARK   57  A    between atoms: _127  and  _130
REMARK   58  A    between atoms: _130  and  _131
REMARK   59  A    between atoms: _136  and  _137
REMARK   60  A    between atoms: _139  and  _141
REMARK   61  A    between atoms: _141  and  _142
REMARK   62  A    between atoms: _141  and  _144
REMARK   63  A    between atoms: _148  and  _149
REMARK   64  A    between atoms: _154  and  _156
REMARK   65  A    between atoms: _156  and  _157
REMARK   66  A    between atoms: _156  and  _159
REMARK   67  A    between atoms: _159  and  _160
REMARK   68  A    between atoms: _165  and  _166
REMARK   69  A    between atoms: _168  and  _170
REMARK   70  A    between atoms: _170  and  _171
REMARK   71  A    between atoms: _170  and  _173
REMARK   72  A    between atoms: _173  and  _174
REMARK   73  A    between atoms: _177  and  _179
REMARK   74  A    between atoms: _179  and  _180
REMARK   75  A    between atoms: _179  and  _182
REMARK   76  A    between atoms: _182  and  _183
REMARK   77  A    between atoms: _183  and  _184
REMARK   78  A    between atoms: _189  and  _191
REMARK   79  A    between atoms: _191  and  _192
REMARK   80  A    between atoms: _194  and  _196
REMARK   81  A    between atoms: _196  and  _197
REMARK   82  A    between atoms: _196  and  _199
REMARK   83  A    between atoms: _199  and  _200
REMARK   84  A    between atoms: _200  and  _201
REMARK   85  A    between atoms: _201  and  _202
REMARK   86  A    between atoms: _202  and  _203
REMARK   87  A    between atoms: _207  and  _209
REMARK   88  A    between atoms: _209  and  _210
REMARK   89  A    between atoms: _209  and  _212
REMARK   90  A    between atoms: _212  and  _213
REMARK   91  A    between atoms: _223  and  _225
REMARK   92  A    between atoms: _225  and  _226
REMARK   93  A    between atoms: _225  and  _228
REMARK   94  A    between atoms: _228  and  _229
REMARK   95  A    between atoms: _232  and  _234
REMARK   96  A    between atoms: _234  and  _235
REMARK   97  A    between atoms: _234  and  _237
REMARK   98  A    between atoms: _237  and  _238
REMARK   99  A    between atoms: _238  and  _239
REMARK  100  A    between atoms: _239  and  _240
REMARK  101  A    between atoms: _240  and  _241
REMARK  102  A    between atoms: _245  and  _247
REMARK  103  A    between atoms: _247  and  _248
REMARK  104  A    between atoms: _247  and  _250
REMARK  105  A    between atoms: _250  and  _251
REMARK  106  A    between atoms: _257  and  _259
REMARK  107  A    between atoms: _259  and  _260
REMARK  108  A    between atoms: _259  and  _262
REMARK  109  A    between atoms: _262  and  _263
REMARK  110  A    between atoms: _269  and  _271
REMARK  111  A    between atoms: _271  and  _272
REMARK  112  A    between atoms: _271  and  _274
REMARK  113  A    between atoms: _274  and  _275
REMARK  114  A    between atoms: _278  and  _280
REMARK  115  A    between atoms: _280  and  _281
REMARK  116  A    between atoms: _280  and  _283
REMARK  117  A    between atoms: _283  and  _284
REMARK  118  A    between atoms: _286  and  _288
REMARK  119  A    between atoms: _288  and  _289
REMARK  120  A    between atoms: _288  and  _291
REMARK  121  A    between atoms: _291  and  _292
REMARK  122  A    between atoms: _302  and  _304
REMARK  123  A    between atoms: _304  and  _305
REMARK  124  A    between atoms: _307  and  _309
REMARK  125  A    between atoms: _309  and  _310
REMARK  126  A    between atoms: _309  and  _312
REMARK  127  A    between atoms: _312  and  _313
REMARK  128  A    between atoms: _316  and  _318
REMARK  129  A    between atoms: _318  and  _319
REMARK  130  A    between atoms: _318  and  _321
REMARK  131  A    between atoms: _321  and  _322
REMARK  132  A    between atoms: _325  and  _327
REMARK  133  A    between atoms: _327  and  _328
REMARK  134  A    between atoms: _330  and  _332
REMARK  135  A    between atoms: _332  and  _333
REMARK  136  A    between atoms: _332  and  _335
REMARK  137  A    between atoms: _335  and  _336
REMARK  138  A    between atoms: _339  and  _341
REMARK  139  A    between atoms: _341  and  _342
REMARK  140  A    between atoms: _345  and  _347
REMARK  141  A    between atoms: _347  and  _348
REMARK  142  A    between atoms: _347  and  _350
REMARK  143  A    between atoms: _350  and  _351
REMARK  144  A    between atoms: _356  and  _357
REMARK  145  A    between atoms: _359  and  _361
REMARK  146  A    between atoms: _361  and  _362
REMARK  147  A    between atoms: _361  and  _364
REMARK  148  A    between atoms: _364  and  _365
REMARK  149  A    between atoms: _365  and  _366
REMARK  150  A    between atoms: _369  and  _371
REMARK  151  A    between atoms: _371  and  _372
REMARK  152  A    between atoms: _371  and  _374
REMARK  153  A    between atoms: _374  and  _375
REMARK  154  A    between atoms: _378  and  _380
REMARK  155  A    between atoms: _380  and  _381
REMARK  156  A    between atoms: _384  and  _386
REMARK  157  A    between atoms: _386  and  _387
REMARK  158  A    between atoms: _386  and  _389
REMARK  159  A    between atoms: _389  and  _390
REMARK  160  A    between atoms: _390  and  _391
REMARK  161  A    between atoms: _391  and  _392
REMARK  162  A    between atoms: _401  and  _403
REMARK  163  A    between atoms: _403  and  _404
REMARK  164  A    between atoms: _403  and  _406
REMARK  165  A    between atoms: _406  and  _407
REMARK  166  A    between atoms: _417  and  _419
REMARK  167  A    between atoms: _419  and  _420
REMARK  168  A    between atoms: _419  and  _422
REMARK  169  A    between atoms: _422  and  _423
REMARK  170  A    between atoms: _428  and  _429
REMARK  171  A    between atoms: _431  and  _433
REMARK  172  A    between atoms: _433  and  _434
REMARK  173  A    between atoms: _433  and  _436
REMARK  174  A    between atoms: _436  and  _437
REMARK  175  A    between atoms: _442  and  _443
REMARK  176  A    between atoms: _445  and  _447
REMARK  177  A    between atoms: _447  and  _448
REMARK  178  A    between atoms: _447  and  _450
REMARK  179  A    between atoms: _450  and  _451
REMARK  180  A    between atoms: _451  and  _452
REMARK  181  A    between atoms: _452  and  _453
REMARK  182  A    between atoms: _453  and  _454
REMARK  183  A    between atoms: _458  and  _460
REMARK  184  A    between atoms: _460  and  _461
REMARK  185  A    between atoms: _460  and  _463
REMARK  186  A    between atoms: _463  and  _464
REMARK  187  A    between atoms: _467  and  _469
REMARK  188  A    between atoms: _469  and  _470
REMARK  189  A    between atoms: _469  and  _472
REMARK  190  A    between atoms: _475  and  _477
REMARK  191  A    between atoms: _477  and  _478
REMARK  192  A    between atoms: _477  and  _480
REMARK  193  A    between atoms: _480  and  _481
REMARK  194  A    between atoms: _484  and  _486
REMARK  195  A    between atoms: _486  and  _487
REMARK  196  A    between atoms: _486  and  _489
REMARK  197  A    between atoms: _489  and  _490
REMARK  198  A    between atoms: _492  and  _494
REMARK  199  A    between atoms: _494  and  _495
REMARK  200  A    between atoms: _497  and  _499
REMARK  201  A    between atoms: _499  and  _500
REMARK  202  A    between atoms: _499  and  _502
REMARK  203  A    between atoms: _502  and  _503
REMARK  204  A    between atoms: _506  and  _508
REMARK  205  A    between atoms: _508  and  _509
REMARK  206  A    between atoms: _508  and  _511
REMARK  207  A    between atoms: _511  and  _512
REMARK  208  A    between atoms: _515  and  _517
REMARK  209  A    between atoms: _517  and  _518
REMARK  210  A    between atoms: _517  and  _520
REMARK  211  A    between atoms: _520  and  _521
REMARK  212  A    between atoms: _526  and  _528
REMARK  213  A    between atoms: _528  and  _529
REMARK  214  A    between atoms: _528  and  _531
REMARK  215  A    between atoms: _531  and  _532
REMARK  216  A    between atoms: _532  and  _533
REMARK  217  A    between atoms: _533  and  _534
REMARK  218  A    between atoms: _543  and  _545
REMARK  219  A    between atoms: _545  and  _546
REMARK  220  A    between atoms: _545  and  _548
REMARK  221  A    between atoms: _548  and  _549
REMARK  222  A    between atoms: _549  and  _550
REMARK  223  A    between atoms: _550  and  _551
REMARK  224  A    between atoms: _560  and  _562
REMARK  225  A    between atoms: _562  and  _563
REMARK  226  A    between atoms: _562  and  _565
REMARK  227  A    between atoms: _565  and  _566
REMARK  228  A    between atoms: _568  and  _570
REMARK  229  A    between atoms: _570  and  _571
REMARK  230  A    between atoms: _570  and  _573
REMARK  231  A    between atoms: _573  and  _574
REMARK  232  A    between atoms: _574  and  _575
REMARK  233  A    between atoms: _580  and  _582
REMARK  234  A    between atoms: _582  and  _583
REMARK  235  A    between atoms: _582  and  _585
REMARK  236  A    between atoms: _585  and  _586
REMARK  237  A    between atoms: _588  and  _590
REMARK  238  A    between atoms: _590  and  _591
REMARK  239  A    between atoms: _590  and  _593
REMARK  240  A    between atoms: _593  and  _594
REMARK  241  A    between atoms: _596  and  _598
REMARK  242  A    between atoms: _598  and  _599
REMARK  243  A    between atoms: _598  and  _601
REMARK  244  A    between atoms: _601  and  _602
REMARK  245  A    between atoms: _605  and  _607
REMARK  246  A    between atoms: _607  and  _608
REMARK  247  A    between atoms: _607  and  _610
REMARK  248  A    between atoms: _610  and  _611
REMARK  249  A    between atoms: _614  and  _616
REMARK  250  A    between atoms: _616  and  _617
REMARK  251  A    between atoms: _616  and  _619
REMARK  252  A    between atoms: _622  and  _624
REMARK  253  A    between atoms: _624  and  _625
REMARK  254  A    between atoms: _627  and  _629
REMARK  255  A    between atoms: _629  and  _630
REMARK  256  A    between atoms: _633  and  _635
REMARK  257  A    between atoms: _635  and  _636
REMARK  258  A    between atoms: _635  and  _638
REMARK                            x       y       z     vdW  Elec       q    Type
REMARK                         _______ _______ _______ _____ _____    ______ ____
ROOT
ATOM      1  O   HOH     1       8.528   6.951  24.510  0.00  0.00    +0.000 OA
ENDROOT
TORSDOF 0
REMARK  Name = ../refined-set-2016/3lpk/3lpk_pocket.pdb
REMARK  258 active torsions:
REMARK  status: ('A' for Active; 'I' for Inactive)
REMARK    1  A    between atoms: _1  and  _3
REMARK    2  A    between atoms: _3  and  _4
REMARK    3  A    between atoms: _3  and  _6
REMARK    4  A    between atoms: _6  and  _7
REMARK    5  A    between atoms: _7  and  _8
REMARK    6  A    between atoms: _8  and  _9
REMARK    7  A    between atoms: _9  and  _10
REMARK    8  A    between atoms: _14  and  _16
REMARK    9  A    between atoms: _16  and  _17
REMARK   10  A    between atoms: _16  and  _19
REMARK   11  A    between atoms: _19  and  _20
REMARK   12  A    between atoms: _22  and  _24
REMARK   13  A    between atoms: _24  and  _25
REMARK   14  A    between atoms: _27  and  _29
REMARK   15  A    between atoms: _29  and  _30
REMARK   16  A    between atoms: _29  and  _32
REMARK   17  A    between atoms: _32  and  _33
REMARK   18  A    between atoms: _33  and  _34
REMARK   19  A    between atoms: _39  and  _41
REMARK   20  A    between atoms: _41  and  _42
REMARK   21  A    between atoms: _44  and  _46
REMARK   22  A    between atoms: _46  and  _47
REMARK   23  A    between atoms: _46  and  _49
REMARK   24  A    between atoms: _49  and  _50
REMARK   25  A    between atoms: _55  and  _56
REMARK   26  A    between atoms: _58  and  _60
REMARK   27  A    between atoms: _60  and  _61
REMARK   28  A    between atoms: _60  and  _63
REMARK   29  A    between atoms: _63  and  _64
REMARK   30  A    between atoms: _67  and  _69
REMARK   31  A    between atoms: _69  and  _70
REMARK   32  A    between atoms: _69  and  _72
REMARK   33  A    between atoms: _75  and  _77
REMARK   34  A    between atoms: _77  and  _78
REMARK   35  A    between atoms: _77  and  _80
REMARK   36  A    between atoms: _80  and  _81
REMARK   37  A    between atoms: _84  and  _86
REMARK   38  A    between atoms: _86  and  _87
REMARK   39  A    between atoms: _86  and  _89
REMARK   40  A    between atoms: _89  and  _90
REMARK   41  A    between atoms: _93  and  _95
REMARK   42  A    between atoms: _95  and  _96
REMARK   43  A    between atoms: _98  and  _100
REMARK   44  A    between atoms: _100  and  _101
REMARK   45  A    between atoms: _100  and  _103
REMARK   46  A    between atoms: _103  and  _104
REMARK   47  A    between atoms: _106  and  _108
REMARK   48  A    between atoms: _108  and  _109
REMARK   49  A    between atoms: _108  and  _111
REMARK   50  A    between atoms: _111  and  _112
REMARK   51  A    between atoms: _114  and  _116
REMARK   52  A    between atoms: _116  and  _117
REMARK   53  A    between atoms: _116  and  _119
REMARK   54  A    between atoms: _119  and  _120
REMARK   55  A    between atoms: _125  and  _127
REMARK   56  A    between atoms: _127  and  _128
REMARK   57  A    between atoms: _127  and  _130
REMARK   58  A    between atoms: _130  and  _131
REMARK   59  A    between atoms: _136  and  _137
REMARK   60  A    between atoms: _139  and  _141
REMARK   61  A    between atoms: _141  and  _142
REMARK   62  A    between atoms: _141  and  _144
REMARK   63  A    between atoms: _148  and  _149
REMARK   64  A    between atoms: _154  and  _156
REMARK   65  A    between atoms: _156  and  _157
REMARK   66  A    between atoms: _156  and  _159
REMARK   67  A    between atoms: _159  and  _160
REMARK   68  A    between atoms: _165  and  _166
REMARK   69  A    between atoms: _168  and  _170
REMARK   70  A    between atoms: _170  and  _171
REMARK   71  A    between atoms: _170  and  _173
REMARK   72  A    between atoms: _173  and  _174
REMARK   73  A    between atoms: _177  and  _179
REMARK   74  A    between atoms: _179  and  _180
REMARK   75  A    between atoms: _179  and  _182
REMARK   76  A    between atoms: _182  and  _183
REMARK   77  A    between atoms: _183  and  _184
REMARK   78  A    between atoms: _189  and  _191
REMARK   79  A    between atoms: _191  and  _192
REMARK   80  A    between atoms: _194  and  _196
REMARK   81  A    between atoms: _196  and  _197
REMARK   82  A    between atoms: _196  and  _199
REMARK   83  A    between atoms: _199  and  _200
REMARK   84  A    between atoms: _200  and  _201
REMARK   85  A    between atoms: _201  and  _202
REMARK   86  A    between atoms: _202  and  _203
REMARK   87  A    between atoms: _207  and  _209
REMARK   88  A    between atoms: _209  and  _210
REMARK   89  A    between atoms: _209  and  _212
REMARK   90  A    between atoms: _212  and  _213
REMARK   91  A    between atoms: _223  and  _225
REMARK   92  A    between atoms: _225  and  _226
REMARK   93  A    between atoms: _225  and  _228
REMARK   94  A    between atoms: _228  and  _229
REMARK   95  A    between atoms: _232  and  _234
REMARK   96  A    between atoms: _234  and  _235
REMARK   97  A    between atoms: _234  and  _237
REMARK   98  A    between atoms: _237  and  _238
REMARK   99  A    between atoms: _238  and  _239
REMARK  100  A    between atoms: _239  and  _240
REMARK  101  A    between atoms: _240  and  _241
REMARK  102  A    between atoms: _245  and  _247
REMARK  103  A    between atoms: _247  and  _248
REMARK  104  A    between atoms: _247  and  _250
REMARK  105  A    between atoms: _250  and  _251
REMARK  106  A    between atoms: _257  and  _259
REMARK  107  A    between atoms: _259  and  _260
REMARK  108  A    between atoms: _259  and  _262
REMARK  109  A    between atoms: _262  and  _263
REMARK  110  A    between atoms: _269  and  _271
REMARK  111  A    between atoms: _271  and  _272
REMARK  112  A    between atoms: _271  and  _274
REMARK  113  A    between atoms: _274  and  _275
REMARK  114  A    between atoms: _278  and  _280
REMARK  115  A    between atoms: _280  and  _281
REMARK  116  A    between atoms: _280  and  _283
REMARK  117  A    between atoms: _283  and  _284
REMARK  118  A    between atoms: _286  and  _288
REMARK  119  A    between atoms: _288  and  _289
REMARK  120  A    between atoms: _288  and  _291
REMARK  121  A    between atoms: _291  and  _292
REMARK  122  A    between atoms: _302  and  _304
REMARK  123  A    between atoms: _304  and  _305
REMARK  124  A    between atoms: _307  and  _309
REMARK  125  A    between atoms: _309  and  _310
REMARK  126  A    between atoms: _309  and  _312
REMARK  127  A    between atoms: _312  and  _313
REMARK  128  A    between atoms: _316  and  _318
REMARK  129  A    between atoms: _318  and  _319
REMARK  130  A    between atoms: _318  and  _321
REMARK  131  A    between atoms: _321  and  _322
REMARK  132  A    between atoms: _325  and  _327
REMARK  133  A    between atoms: _327  and  _328
REMARK  134  A    between atoms: _330  and  _332
REMARK  135  A    between atoms: _332  and  _333
REMARK  136  A    between atoms: _332  and  _335
REMARK  137  A    between atoms: _335  and  _336
REMARK  138  A    between atoms: _339  and  _341
REMARK  139  A    between atoms: _341  and  _342
REMARK  140  A    between atoms: _345  and  _347
REMARK  141  A    between atoms: _347  and  _348
REMARK  142  A    between atoms: _347  and  _350
REMARK  143  A    between atoms: _350  and  _351
REMARK  144  A    between atoms: _356  and  _357
REMARK  145  A    between atoms: _359  and  _361
REMARK  146  A    between atoms: _361  and  _362
REMARK  147  A    between atoms: _361  and  _364
REMARK  148  A    between atoms: _364  and  _365
REMARK  149  A    between atoms: _365  and  _366
REMARK  150  A    between atoms: _369  and  _371
REMARK  151  A    between atoms: _371  and  _372
REMARK  152  A    between atoms: _371  and  _374
REMARK  153  A    between atoms: _374  and  _375
REMARK  154  A    between atoms: _378  and  _380
REMARK  155  A    between atoms: _380  and  _381
REMARK  156  A    between atoms: _384  and  _386
REMARK  157  A    between atoms: _386  and  _387
REMARK  158  A    between atoms: _386  and  _389
REMARK  159  A    between atoms: _389  and  _390
REMARK  160  A    between atoms: _390  and  _391
REMARK  161  A    between atoms: _391  and  _392
REMARK  162  A    between atoms: _401  and  _403
REMARK  163  A    between atoms: _403  and  _404
REMARK  164  A    between atoms: _403  and  _406
REMARK  165  A    between atoms: _406  and  _407
REMARK  166  A    between atoms: _417  and  _419
REMARK  167  A    between atoms: _419  and  _420
REMARK  168  A    between atoms: _419  and  _422
REMARK  169  A    between atoms: _422  and  _423
REMARK  170  A    between atoms: _428  and  _429
REMARK  171  A    between atoms: _431  and  _433
REMARK  172  A    between atoms: _433  and  _434
REMARK  173  A    between atoms: _433  and  _436
REMARK  174  A    between atoms: _436  and  _437
REMARK  175  A    between atoms: _442  and  _443
REMARK  176  A    between atoms: _445  and  _447
REMARK  177  A    between atoms: _447  and  _448
REMARK  178  A    between atoms: _447  and  _450
REMARK  179  A    between atoms: _450  and  _451
REMARK  180  A    between atoms: _451  and  _452
REMARK  181  A    between atoms: _452  and  _453
REMARK  182  A    between atoms: _453  and  _454
REMARK  183  A    between atoms: _458  and  _460
REMARK  184  A    between atoms: _460  and  _461
REMARK  185  A    between atoms: _460  and  _463
REMARK  186  A    between atoms: _463  and  _464
REMARK  187  A    between atoms: _467  and  _469
REMARK  188  A    between atoms: _469  and  _470
REMARK  189  A    between atoms: _469  and  _472
REMARK  190  A    between atoms: _475  and  _477
REMARK  191  A    between atoms: _477  and  _478
REMARK  192  A    between atoms: _477  and  _480
REMARK  193  A    between atoms: _480  and  _481
REMARK  194  A    between atoms: _484  and  _486
REMARK  195  A    between atoms: _486  and  _487
REMARK  196  A    between atoms: _486  and  _489
REMARK  197  A    between atoms: _489  and  _490
REMARK  198  A    between atoms: _492  and  _494
REMARK  199  A    between atoms: _494  and  _495
REMARK  200  A    between atoms: _497  and  _499
REMARK  201  A    between atoms: _499  and  _500
REMARK  202  A    between atoms: _499  and  _502
REMARK  203  A    between atoms: _502  and  _503
REMARK  204  A    between atoms: _506  and  _508
REMARK  205  A    between atoms: _508  and  _509
REMARK  206  A    between atoms: _508  and  _511
REMARK  207  A    between atoms: _511  and  _512
REMARK  208  A    between atoms: _515  and  _517
REMARK  209  A    between atoms: _517  and  _518
REMARK  210  A    between atoms: _517  and  _520
REMARK  211  A    between atoms: _520  and  _521
REMARK  212  A    between atoms: _526  and  _528
REMARK  213  A    between atoms: _528  and  _529
REMARK  214  A    between atoms: _528  and  _531
REMARK  215  A    between atoms: _531  and  _532
REMARK  216  A    between atoms: _532  and  _533
REMARK  217  A    between atoms: _533  and  _534
REMARK  218  A    between atoms: _543  and  _545
REMARK  219  A    between atoms: _545  and  _546
REMARK  220  A    between atoms: _545  and  _548
REMARK  221  A    between atoms: _548  and  _549
REMARK  222  A    between atoms: _549  and  _550
REMARK  223  A    between atoms: _550  and  _551
REMARK  224  A    between atoms: _560  and  _562
REMARK  225  A    between atoms: _562  and  _563
REMARK  226  A    between atoms: _562  and  _565
REMARK  227  A    between atoms: _565  and  _566
REMARK  228  A    between atoms: _568  and  _570
REMARK  229  A    between atoms: _570  and  _571
REMARK  230  A    between atoms: _570  and  _573
REMARK  231  A    between atoms: _573  and  _574
REMARK  232  A    between atoms: _574  and  _575
REMARK  233  A    between atoms: _580  and  _582
REMARK  234  A    between atoms: _582  and  _583
REMARK  235  A    between atoms: _582  and  _585
REMARK  236  A    between atoms: _585  and  _586
REMARK  237  A    between atoms: _588  and  _590
REMARK  238  A    between atoms: _590  and  _591
REMARK  239  A    between atoms: _590  and  _593
REMARK  240  A    between atoms: _593  and  _594
REMARK  241  A    between atoms: _596  and  _598
REMARK  242  A    between atoms: _598  and  _599
REMARK  243  A    between atoms: _598  and  _601
REMARK  244  A    between atoms: _601  and  _602
REMARK  245  A    between atoms: _605  and  _607
REMARK  246  A    between atoms: _607  and  _608
REMARK  247  A    between atoms: _607  and  _610
REMARK  248  A    between atoms: _610  and  _611
REMARK  249  A    between atoms: _614  and  _616
REMARK  250  A    between atoms: _616  and  _617
REMARK  251  A    between atoms: _616  and  _619
REMARK  252  A    between atoms: _622  and  _624
REMARK  253  A    between atoms: _624  and  _625
REMARK  254  A    between atoms: _627  and  _629
REMARK  255  A    between atoms: _629  and  _630
REMARK  256  A    between atoms: _633  and  _635
REMARK  257  A    between atoms: _635  and  _636
REMARK  258  A    between atoms: _635  and  _638
REMARK                            x       y       z     vdW  Elec       q    Type
REMARK                         _______ _______ _______ _____ _____    ______ ____
ROOT
ATOM      1  O   HOH     1      10.830  13.649  21.372  0.00  0.00    +0.000 OA
ENDROOT
TORSDOF 0
REMARK  Name = ../refined-set-2016/3lpk/3lpk_pocket.pdb
REMARK  258 active torsions:
REMARK  status: ('A' for Active; 'I' for Inactive)
REMARK    1  A    between atoms: _1  and  _3
REMARK    2  A    between atoms: _3  and  _4
REMARK    3  A    between atoms: _3  and  _6
REMARK    4  A    between atoms: _6  and  _7
REMARK    5  A    between atoms: _7  and  _8
REMARK    6  A    between atoms: _8  and  _9
REMARK    7  A    between atoms: _9  and  _10
REMARK    8  A    between atoms: _14  and  _16
REMARK    9  A    between atoms: _16  and  _17
REMARK   10  A    between atoms: _16  and  _19
REMARK   11  A    between atoms: _19  and  _20
REMARK   12  A    between atoms: _22  and  _24
REMARK   13  A    between atoms: _24  and  _25
REMARK   14  A    between atoms: _27  and  _29
REMARK   15  A    between atoms: _29  and  _30
REMARK   16  A    between atoms: _29  and  _32
REMARK   17  A    between atoms: _32  and  _33
REMARK   18  A    between atoms: _33  and  _34
REMARK   19  A    between atoms: _39  and  _41
REMARK   20  A    between atoms: _41  and  _42
REMARK   21  A    between atoms: _44  and  _46
REMARK   22  A    between atoms: _46  and  _47
REMARK   23  A    between atoms: _46  and  _49
REMARK   24  A    between atoms: _49  and  _50
REMARK   25  A    between atoms: _55  and  _56
REMARK   26  A    between atoms: _58  and  _60
REMARK   27  A    between atoms: _60  and  _61
REMARK   28  A    between atoms: _60  and  _63
REMARK   29  A    between atoms: _63  and  _64
REMARK   30  A    between atoms: _67  and  _69
REMARK   31  A    between atoms: _69  and  _70
REMARK   32  A    between atoms: _69  and  _72
REMARK   33  A    between atoms: _75  and  _77
REMARK   34  A    between atoms: _77  and  _78
REMARK   35  A    between atoms: _77  and  _80
REMARK   36  A    between atoms: _80  and  _81
REMARK   37  A    between atoms: _84  and  _86
REMARK   38  A    between atoms: _86  and  _87
REMARK   39  A    between atoms: _86  and  _89
REMARK   40  A    between atoms: _89  and  _90
REMARK   41  A    between atoms: _93  and  _95
REMARK   42  A    between atoms: _95  and  _96
REMARK   43  A    between atoms: _98  and  _100
REMARK   44  A    between atoms: _100  and  _101
REMARK   45  A    between atoms: _100  and  _103
REMARK   46  A    between atoms: _103  and  _104
REMARK   47  A    between atoms: _106  and  _108
REMARK   48  A    between atoms: _108  and  _109
REMARK   49  A    between atoms: _108  and  _111
REMARK   50  A    between atoms: _111  and  _112
REMARK   51  A    between atoms: _114  and  _116
REMARK   52  A    between atoms: _116  and  _117
REMARK   53  A    between atoms: _116  and  _119
REMARK   54  A    between atoms: _119  and  _120
REMARK   55  A    between atoms: _125  and  _127
REMARK   56  A    between atoms: _127  and  _128
REMARK   57  A    between atoms: _127  and  _130
REMARK   58  A    between atoms: _130  and  _131
REMARK   59  A    between atoms: _136  and  _137
REMARK   60  A    between atoms: _139  and  _141
REMARK   61  A    between atoms: _141  and  _142
REMARK   62  A    between atoms: _141  and  _144
REMARK   63  A    between atoms: _148  and  _149
REMARK   64  A    between atoms: _154  and  _156
REMARK   65  A    between atoms: _156  and  _157
REMARK   66  A    between atoms: _156  and  _159
REMARK   67  A    between atoms: _159  and  _160
REMARK   68  A    between atoms: _165  and  _166
REMARK   69  A    between atoms: _168  and  _170
REMARK   70  A    between atoms: _170  and  _171
REMARK   71  A    between atoms: _170  and  _173
REMARK   72  A    between atoms: _173  and  _174
REMARK   73  A    between atoms: _177  and  _179
REMARK   74  A    between atoms: _179  and  _180
REMARK   75  A    between atoms: _179  and  _182
REMARK   76  A    between atoms: _182  and  _183
REMARK   77  A    between atoms: _183  and  _184
REMARK   78  A    between atoms: _189  and  _191
REMARK   79  A    between atoms: _191  and  _192
REMARK   80  A    between atoms: _194  and  _196
REMARK   81  A    between atoms: _196  and  _197
REMARK   82  A    between atoms: _196  and  _199
REMARK   83  A    between atoms: _199  and  _200
REMARK   84  A    between atoms: _200  and  _201
REMARK   85  A    between atoms: _201  and  _202
REMARK   86  A    between atoms: _202  and  _203
REMARK   87  A    between atoms: _207  and  _209
REMARK   88  A    between atoms: _209  and  _210
REMARK   89  A    between atoms: _209  and  _212
REMARK   90  A    between atoms: _212  and  _213
REMARK   91  A    between atoms: _223  and  _225
REMARK   92  A    between atoms: _225  and  _226
REMARK   93  A    between atoms: _225  and  _228
REMARK   94  A    between atoms: _228  and  _229
REMARK   95  A    between atoms: _232  and  _234
REMARK   96  A    between atoms: _234  and  _235
REMARK   97  A    between atoms: _234  and  _237
REMARK   98  A    between atoms: _237  and  _238
REMARK   99  A    between atoms: _238  and  _239
REMARK  100  A    between atoms: _239  and  _240
REMARK  101  A    between atoms: _240  and  _241
REMARK  102  A    between atoms: _245  and  _247
REMARK  103  A    between atoms: _247  and  _248
REMARK  104  A    between atoms: _247  and  _250
REMARK  105  A    between atoms: _250  and  _251
REMARK  106  A    between atoms: _257  and  _259
REMARK  107  A    between atoms: _259  and  _260
REMARK  108  A    between atoms: _259  and  _262
REMARK  109  A    between atoms: _262  and  _263
REMARK  110  A    between atoms: _269  and  _271
REMARK  111  A    between atoms: _271  and  _272
REMARK  112  A    between atoms: _271  and  _274
REMARK  113  A    between atoms: _274  and  _275
REMARK  114  A    between atoms: _278  and  _280
REMARK  115  A    between atoms: _280  and  _281
REMARK  116  A    between atoms: _280  and  _283
REMARK  117  A    between atoms: _283  and  _284
REMARK  118  A    between atoms: _286  and  _288
REMARK  119  A    between atoms: _288  and  _289
REMARK  120  A    between atoms: _288  and  _291
REMARK  121  A    between atoms: _291  and  _292
REMARK  122  A    between atoms: _302  and  _304
REMARK  123  A    between atoms: _304  and  _305
REMARK  124  A    between atoms: _307  and  _309
REMARK  125  A    between atoms: _309  and  _310
REMARK  126  A    between atoms: _309  and  _312
REMARK  127  A    between atoms: _312  and  _313
REMARK  128  A    between atoms: _316  and  _318
REMARK  129  A    between atoms: _318  and  _319
REMARK  130  A    between atoms: _318  and  _321
REMARK  131  A    between atoms: _321  and  _322
REMARK  132  A    between atoms: _325  and  _327
REMARK  133  A    between atoms: _327  and  _328
REMARK  134  A    between atoms: _330  and  _332
REMARK  135  A    between atoms: _332  and  _333
REMARK  136  A    between atoms: _332  and  _335
REMARK  137  A    between atoms: _335  and  _336
REMARK  138  A    between atoms: _339  and  _341
REMARK  139  A    between atoms: _341  and  _342
REMARK  140  A    between atoms: _345  and  _347
REMARK  141  A    between atoms: _347  and  _348
REMARK  142  A    between atoms: _347  and  _350
REMARK  143  A    between atoms: _350  and  _351
REMARK  144  A    between atoms: _356  and  _357
REMARK  145  A    between atoms: _359  and  _361
REMARK  146  A    between atoms: _361  and  _362
REMARK  147  A    between atoms: _361  and  _364
REMARK  148  A    between atoms: _364  and  _365
REMARK  149  A    between atoms: _365  and  _366
REMARK  150  A    between atoms: _369  and  _371
REMARK  151  A    between atoms: _371  and  _372
REMARK  152  A    between atoms: _371  and  _374
REMARK  153  A    between atoms: _374  and  _375
REMARK  154  A    between atoms: _378  and  _380
REMARK  155  A    between atoms: _380  and  _381
REMARK  156  A    between atoms: _384  and  _386
REMARK  157  A    between atoms: _386  and  _387
REMARK  158  A    between atoms: _386  and  _389
REMARK  159  A    between atoms: _389  and  _390
REMARK  160  A    between atoms: _390  and  _391
REMARK  161  A    between atoms: _391  and  _392
REMARK  162  A    between atoms: _401  and  _403
REMARK  163  A    between atoms: _403  and  _404
REMARK  164  A    between atoms: _403  and  _406
REMARK  165  A    between atoms: _406  and  _407
REMARK  166  A    between atoms: _417  and  _419
REMARK  167  A    between atoms: _419  and  _420
REMARK  168  A    between atoms: _419  and  _422
REMARK  169  A    between atoms: _422  and  _423
REMARK  170  A    between atoms: _428  and  _429
REMARK  171  A    between atoms: _431  and  _433
REMARK  172  A    between atoms: _433  and  _434
REMARK  173  A    between atoms: _433  and  _436
REMARK  174  A    between atoms: _436  and  _437
REMARK  175  A    between atoms: _442  and  _443
REMARK  176  A    between atoms: _445  and  _447
REMARK  177  A    between atoms: _447  and  _448
REMARK  178  A    between atoms: _447  and  _450
REMARK  179  A    between atoms: _450  and  _451
REMARK  180  A    between atoms: _451  and  _452
REMARK  181  A    between atoms: _452  and  _453
REMARK  182  A    between atoms: _453  and  _454
REMARK  183  A    between atoms: _458  and  _460
REMARK  184  A    between atoms: _460  and  _461
REMARK  185  A    between atoms: _460  and  _463
REMARK  186  A    between atoms: _463  and  _464
REMARK  187  A    between atoms: _467  and  _469
REMARK  188  A    between atoms: _469  and  _470
REMARK  189  A    between atoms: _469  and  _472
REMARK  190  A    between atoms: _475  and  _477
REMARK  191  A    between atoms: _477  and  _478
REMARK  192  A    between atoms: _477  and  _480
REMARK  193  A    between atoms: _480  and  _481
REMARK  194  A    between atoms: _484  and  _486
REMARK  195  A    between atoms: _486  and  _487
REMARK  196  A    between atoms: _486  and  _489
REMARK  197  A    between atoms: _489  and  _490
REMARK  198  A    between atoms: _492  and  _494
REMARK  199  A    between atoms: _494  and  _495
REMARK  200  A    between atoms: _497  and  _499
REMARK  201  A    between atoms: _499  and  _500
REMARK  202  A    between atoms: _499  and  _502
REMARK  203  A    between atoms: _502  and  _503
REMARK  204  A    between atoms: _506  and  _508
REMARK  205  A    between atoms: _508  and  _509
REMARK  206  A    between atoms: _508  and  _511
REMARK  207  A    between atoms: _511  and  _512
REMARK  208  A    between atoms: _515  and  _517
REMARK  209  A    between atoms: _517  and  _518
REMARK  210  A    between atoms: _517  and  _520
REMARK  211  A    between atoms: _520  and  _521
REMARK  212  A    between atoms: _526  and  _528
REMARK  213  A    between atoms: _528  and  _529
REMARK  214  A    between atoms: _528  and  _531
REMARK  215  A    between atoms: _531  and  _532
REMARK  216  A    between atoms: _532  and  _533
REMARK  217  A    between atoms: _533  and  _534
REMARK  218  A    between atoms: _543  and  _545
REMARK  219  A    between atoms: _545  and  _546
REMARK  220  A    between atoms: _545  and  _548
REMARK  221  A    between atoms: _548  and  _549
REMARK  222  A    between atoms: _549  and  _550
REMARK  223  A    between atoms: _550  and  _551
REMARK  224  A    between atoms: _560  and  _562
REMARK  225  A    between atoms: _562  and  _563
REMARK  226  A    between atoms: _562  and  _565
REMARK  227  A    between atoms: _565  and  _566
REMARK  228  A    between atoms: _568  and  _570
REMARK  229  A    between atoms: _570  and  _571
REMARK  230  A    between atoms: _570  and  _573
REMARK  231  A    between atoms: _573  and  _574
REMARK  232  A    between atoms: _574  and  _575
REMARK  233  A    between atoms: _580  and  _582
REMARK  234  A    between atoms: _582  and  _583
REMARK  235  A    between atoms: _582  and  _585
REMARK  236  A    between atoms: _585  and  _586
REMARK  237  A    between atoms: _588  and  _590
REMARK  238  A    between atoms: _590  and  _591
REMARK  239  A    between atoms: _590  and  _593
REMARK  240  A    between atoms: _593  and  _594
REMARK  241  A    between atoms: _596  and  _598
REMARK  242  A    between atoms: _598  and  _599
REMARK  243  A    between atoms: _598  and  _601
REMARK  244  A    between atoms: _601  and  _602
REMARK  245  A    between atoms: _605  and  _607
REMARK  246  A    between atoms: _607  and  _608
REMARK  247  A    between atoms: _607  and  _610
REMARK  248  A    between atoms: _610  and  _611
REMARK  249  A    between atoms: _614  and  _616
REMARK  250  A    between atoms: _616  and  _617
REMARK  251  A    between atoms: _616  and  _619
REMARK  252  A    between atoms: _622  and  _624
REMARK  253  A    between atoms: _624  and  _625
REMARK  254  A    between atoms: _627  and  _629
REMARK  255  A    between atoms: _629  and  _630
REMARK  256  A    between atoms: _633  and  _635
REMARK  257  A    between atoms: _635  and  _636
REMARK  258  A    between atoms: _635  and  _638
REMARK                            x       y       z     vdW  Elec       q    Type
REMARK                         _______ _______ _______ _____ _____    ______ ____
ROOT
ATOM      1  O   HOH     1       9.817  12.857  19.116  0.00  0.00    +0.000 OA
ENDROOT
TORSDOF 0
REMARK  Name = ../refined-set-2016/3lpk/3lpk_pocket.pdb
REMARK  258 active torsions:
REMARK  status: ('A' for Active; 'I' for Inactive)
REMARK    1  A    between atoms: _1  and  _3
REMARK    2  A    between atoms: _3  and  _4
REMARK    3  A    between atoms: _3  and  _6
REMARK    4  A    between atoms: _6  and  _7
REMARK    5  A    between atoms: _7  and  _8
REMARK    6  A    between atoms: _8  and  _9
REMARK    7  A    between atoms: _9  and  _10
REMARK    8  A    between atoms: _14  and  _16
REMARK    9  A    between atoms: _16  and  _17
REMARK   10  A    between atoms: _16  and  _19
REMARK   11  A    between atoms: _19  and  _20
REMARK   12  A    between atoms: _22  and  _24
REMARK   13  A    between atoms: _24  and  _25
REMARK   14  A    between atoms: _27  and  _29
REMARK   15  A    between atoms: _29  and  _30
REMARK   16  A    between atoms: _29  and  _32
REMARK   17  A    between atoms: _32  and  _33
REMARK   18  A    between atoms: _33  and  _34
REMARK   19  A    between atoms: _39  and  _41
REMARK   20  A    between atoms: _41  and  _42
REMARK   21  A    between atoms: _44  and  _46
REMARK   22  A    between atoms: _46  and  _47
REMARK   23  A    between atoms: _46  and  _49
REMARK   24  A    between atoms: _49  and  _50
REMARK   25  A    between atoms: _55  and  _56
REMARK   26  A    between atoms: _58  and  _60
REMARK   27  A    between atoms: _60  and  _61
REMARK   28  A    between atoms: _60  and  _63
REMARK   29  A    between atoms: _63  and  _64
REMARK   30  A    between atoms: _67  and  _69
REMARK   31  A    between atoms: _69  and  _70
REMARK   32  A    between atoms: _69  and  _72
REMARK   33  A    between atoms: _75  and  _77
REMARK   34  A    between atoms: _77  and  _78
REMARK   35  A    between atoms: _77  and  _80
REMARK   36  A    between atoms: _80  and  _81
REMARK   37  A    between atoms: _84  and  _86
REMARK   38  A    between atoms: _86  and  _87
REMARK   39  A    between atoms: _86  and  _89
REMARK   40  A    between atoms: _89  and  _90
REMARK   41  A    between atoms: _93  and  _95
REMARK   42  A    between atoms: _95  and  _96
REMARK   43  A    between atoms: _98  and  _100
REMARK   44  A    between atoms: _100  and  _101
REMARK   45  A    between atoms: _100  and  _103
REMARK   46  A    between atoms: _103  and  _104
REMARK   47  A    between atoms: _106  and  _108
REMARK   48  A    between atoms: _108  and  _109
REMARK   49  A    between atoms: _108  and  _111
REMARK   50  A    between atoms: _111  and  _112
REMARK   51  A    between atoms: _114  and  _116
REMARK   52  A    between atoms: _116  and  _117
REMARK   53  A    between atoms: _116  and  _119
REMARK   54  A    between atoms: _119  and  _120
REMARK   55  A    between atoms: _125  and  _127
REMARK   56  A    between atoms: _127  and  _128
REMARK   57  A    between atoms: _127  and  _130
REMARK   58  A    between atoms: _130  and  _131
REMARK   59  A    between atoms: _136  and  _137
REMARK   60  A    between atoms: _139  and  _141
REMARK   61  A    between atoms: _141  and  _142
REMARK   62  A    between atoms: _141  and  _144
REMARK   63  A    between atoms: _148  and  _149
REMARK   64  A    between atoms: _154  and  _156
REMARK   65  A    between atoms: _156  and  _157
REMARK   66  A    between atoms: _156  and  _159
REMARK   67  A    between atoms: _159  and  _160
REMARK   68  A    between atoms: _165  and  _166
REMARK   69  A    between atoms: _168  and  _170
REMARK   70  A    between atoms: _170  and  _171
REMARK   71  A    between atoms: _170  and  _173
REMARK   72  A    between atoms: _173  and  _174
REMARK   73  A    between atoms: _177  and  _179
REMARK   74  A    between atoms: _179  and  _180
REMARK   75  A    between atoms: _179  and  _182
REMARK   76  A    between atoms: _182  and  _183
REMARK   77  A    between atoms: _183  and  _184
REMARK   78  A    between atoms: _189  and  _191
REMARK   79  A    between atoms: _191  and  _192
REMARK   80  A    between atoms: _194  and  _196
REMARK   81  A    between atoms: _196  and  _197
REMARK   82  A    between atoms: _196  and  _199
REMARK   83  A    between atoms: _199  and  _200
REMARK   84  A    between atoms: _200  and  _201
REMARK   85  A    between atoms: _201  and  _202
REMARK   86  A    between atoms: _202  and  _203
REMARK   87  A    between atoms: _207  and  _209
REMARK   88  A    between atoms: _209  and  _210
REMARK   89  A    between atoms: _209  and  _212
REMARK   90  A    between atoms: _212  and  _213
REMARK   91  A    between atoms: _223  and  _225
REMARK   92  A    between atoms: _225  and  _226
REMARK   93  A    between atoms: _225  and  _228
REMARK   94  A    between atoms: _228  and  _229
REMARK   95  A    between atoms: _232  and  _234
REMARK   96  A    between atoms: _234  and  _235
REMARK   97  A    between atoms: _234  and  _237
REMARK   98  A    between atoms: _237  and  _238
REMARK   99  A    between atoms: _238  and  _239
REMARK  100  A    between atoms: _239  and  _240
REMARK  101  A    between atoms: _240  and  _241
REMARK  102  A    between atoms: _245  and  _247
REMARK  103  A    between atoms: _247  and  _248
REMARK  104  A    between atoms: _247  and  _250
REMARK  105  A    between atoms: _250  and  _251
REMARK  106  A    between atoms: _257  and  _259
REMARK  107  A    between atoms: _259  and  _260
REMARK  108  A    between atoms: _259  and  _262
REMARK  109  A    between atoms: _262  and  _263
REMARK  110  A    between atoms: _269  and  _271
REMARK  111  A    between atoms: _271  and  _272
REMARK  112  A    between atoms: _271  and  _274
REMARK  113  A    between atoms: _274  and  _275
REMARK  114  A    between atoms: _278  and  _280
REMARK  115  A    between atoms: _280  and  _281
REMARK  116  A    between atoms: _280  and  _283
REMARK  117  A    between atoms: _283  and  _284
REMARK  118  A    between atoms: _286  and  _288
REMARK  119  A    between atoms: _288  and  _289
REMARK  120  A    between atoms: _288  and  _291
REMARK  121  A    between atoms: _291  and  _292
REMARK  122  A    between atoms: _302  and  _304
REMARK  123  A    between atoms: _304  and  _305
REMARK  124  A    between atoms: _307  and  _309
REMARK  125  A    between atoms: _309  and  _310
REMARK  126  A    between atoms: _309  and  _312
REMARK  127  A    between atoms: _312  and  _313
REMARK  128  A    between atoms: _316  and  _318
REMARK  129  A    between atoms: _318  and  _319
REMARK  130  A    between atoms: _318  and  _321
REMARK  131  A    between atoms: _321  and  _322
REMARK  132  A    between atoms: _325  and  _327
REMARK  133  A    between atoms: _327  and  _328
REMARK  134  A    between atoms: _330  and  _332
REMARK  135  A    between atoms: _332  and  _333
REMARK  136  A    between atoms: _332  and  _335
REMARK  137  A    between atoms: _335  and  _336
REMARK  138  A    between atoms: _339  and  _341
REMARK  139  A    between atoms: _341  and  _342
REMARK  140  A    between atoms: _345  and  _347
REMARK  141  A    between atoms: _347  and  _348
REMARK  142  A    between atoms: _347  and  _350
REMARK  143  A    between atoms: _350  and  _351
REMARK  144  A    between atoms: _356  and  _357
REMARK  145  A    between atoms: _359  and  _361
REMARK  146  A    between atoms: _361  and  _362
REMARK  147  A    between atoms: _361  and  _364
REMARK  148  A    between atoms: _364  and  _365
REMARK  149  A    between atoms: _365  and  _366
REMARK  150  A    between atoms: _369  and  _371
REMARK  151  A    between atoms: _371  and  _372
REMARK  152  A    between atoms: _371  and  _374
REMARK  153  A    between atoms: _374  and  _375
REMARK  154  A    between atoms: _378  and  _380
REMARK  155  A    between atoms: _380  and  _381
REMARK  156  A    between atoms: _384  and  _386
REMARK  157  A    between atoms: _386  and  _387
REMARK  158  A    between atoms: _386  and  _389
REMARK  159  A    between atoms: _389  and  _390
REMARK  160  A    between atoms: _390  and  _391
REMARK  161  A    between atoms: _391  and  _392
REMARK  162  A    between atoms: _401  and  _403
REMARK  163  A    between atoms: _403  and  _404
REMARK  164  A    between atoms: _403  and  _406
REMARK  165  A    between atoms: _406  and  _407
REMARK  166  A    between atoms: _417  and  _419
REMARK  167  A    between atoms: _419  and  _420
REMARK  168  A    between atoms: _419  and  _422
REMARK  169  A    between atoms: _422  and  _423
REMARK  170  A    between atoms: _428  and  _429
REMARK  171  A    between atoms: _431  and  _433
REMARK  172  A    between atoms: _433  and  _434
REMARK  173  A    between atoms: _433  and  _436
REMARK  174  A    between atoms: _436  and  _437
REMARK  175  A    between atoms: _442  and  _443
REMARK  176  A    between atoms: _445  and  _447
REMARK  177  A    between atoms: _447  and  _448
REMARK  178  A    between atoms: _447  and  _450
REMARK  179  A    between atoms: _450  and  _451
REMARK  180  A    between atoms: _451  and  _452
REMARK  181  A    between atoms: _452  and  _453
REMARK  182  A    between atoms: _453  and  _454
REMARK  183  A    between atoms: _458  and  _460
REMARK  184  A    between atoms: _460  and  _461
REMARK  185  A    between atoms: _460  and  _463
REMARK  186  A    between atoms: _463  and  _464
REMARK  187  A    between atoms: _467  and  _469
REMARK  188  A    between atoms: _469  and  _470
REMARK  189  A    between atoms: _469  and  _472
REMARK  190  A    between atoms: _475  and  _477
REMARK  191  A    between atoms: _477  and  _478
REMARK  192  A    between atoms: _477  and  _480
REMARK  193  A    between atoms: _480  and  _481
REMARK  194  A    between atoms: _484  and  _486
REMARK  195  A    between atoms: _486  and  _487
REMARK  196  A    between atoms: _486  and  _489
REMARK  197  A    between atoms: _489  and  _490
REMARK  198  A    between atoms: _492  and  _494
REMARK  199  A    between atoms: _494  and  _495
REMARK  200  A    between atoms: _497  and  _499
REMARK  201  A    between atoms: _499  and  _500
REMARK  202  A    between atoms: _499  and  _502
REMARK  203  A    between atoms: _502  and  _503
REMARK  204  A    between atoms: _506  and  _508
REMARK  205  A    between atoms: _508  and  _509
REMARK  206  A    between atoms: _508  and  _511
REMARK  207  A    between atoms: _511  and  _512
REMARK  208  A    between atoms: _515  and  _517
REMARK  209  A    between atoms: _517  and  _518
REMARK  210  A    between atoms: _517  and  _520
REMARK  211  A    between atoms: _520  and  _521
REMARK  212  A    between atoms: _526  and  _528
REMARK  213  A    between atoms: _528  and  _529
REMARK  214  A    between atoms: _528  and  _531
REMARK  215  A    between atoms: _531  and  _532
REMARK  216  A    between atoms: _532  and  _533
REMARK  217  A    between atoms: _533  and  _534
REMARK  218  A    between atoms: _543  and  _545
REMARK  219  A    between atoms: _545  and  _546
REMARK  220  A    between atoms: _545  and  _548
REMARK  221  A    between atoms: _548  and  _549
REMARK  222  A    between atoms: _549  and  _550
REMARK  223  A    between atoms: _550  and  _551
REMARK  224  A    between atoms: _560  and  _562
REMARK  225  A    between atoms: _562  and  _563
REMARK  226  A    between atoms: _562  and  _565
REMARK  227  A    between atoms: _565  and  _566
REMARK  228  A    between atoms: _568  and  _570
REMARK  229  A    between atoms: _570  and  _571
REMARK  230  A    between atoms: _570  and  _573
REMARK  231  A    between atoms: _573  and  _574
REMARK  232  A    between atoms: _574  and  _575
REMARK  233  A    between atoms: _580  and  _582
REMARK  234  A    between atoms: _582  and  _583
REMARK  235  A    between atoms: _582  and  _585
REMARK  236  A    between atoms: _585  and  _586
REMARK  237  A    between atoms: _588  and  _590
REMARK  238  A    between atoms: _590  and  _591
REMARK  239  A    between atoms: _590  and  _593
REMARK  240  A    between atoms: _593  and  _594
REMARK  241  A    between atoms: _596  and  _598
REMARK  242  A    between atoms: _598  and  _599
REMARK  243  A    between atoms: _598  and  _601
REMARK  244  A    between atoms: _601  and  _602
REMARK  245  A    between atoms: _605  and  _607
REMARK  246  A    between atoms: _607  and  _608
REMARK  247  A    between atoms: _607  and  _610
REMARK  248  A    between atoms: _610  and  _611
REMARK  249  A    between atoms: _614  and  _616
REMARK  250  A    between atoms: _616  and  _617
REMARK  251  A    between atoms: _616  and  _619
REMARK  252  A    between atoms: _622  and  _624
REMARK  253  A    between atoms: _624  and  _625
REMARK  254  A    between atoms: _627  and  _629
REMARK  255  A    between atoms: _629  and  _630
REMARK  256  A    between atoms: _633  and  _635
REMARK  257  A    between atoms: _635  and  _636
REMARK  258  A    between atoms: _635  and  _638
REMARK                            x       y       z     vdW  Elec       q    Type
REMARK                         _______ _______ _______ _____ _____    ______ ____
ROOT
ATOM      1  O   HOH     1       8.621  10.701  18.129  0.00  0.00    +0.000 OA
ENDROOT
TORSDOF 0
REMARK  Name = ../refined-set-2016/3lpk/3lpk_pocket.pdb
REMARK  258 active torsions:
REMARK  status: ('A' for Active; 'I' for Inactive)
REMARK    1  A    between atoms: _1  and  _3
REMARK    2  A    between atoms: _3  and  _4
REMARK    3  A    between atoms: _3  and  _6
REMARK    4  A    between atoms: _6  and  _7
REMARK    5  A    between atoms: _7  and  _8
REMARK    6  A    between atoms: _8  and  _9
REMARK    7  A    between atoms: _9  and  _10
REMARK    8  A    between atoms: _14  and  _16
REMARK    9  A    between atoms: _16  and  _17
REMARK   10  A    between atoms: _16  and  _19
REMARK   11  A    between atoms: _19  and  _20
REMARK   12  A    between atoms: _22  and  _24
REMARK   13  A    between atoms: _24  and  _25
REMARK   14  A    between atoms: _27  and  _29
REMARK   15  A    between atoms: _29  and  _30
REMARK   16  A    between atoms: _29  and  _32
REMARK   17  A    between atoms: _32  and  _33
REMARK   18  A    between atoms: _33  and  _34
REMARK   19  A    between atoms: _39  and  _41
REMARK   20  A    between atoms: _41  and  _42
REMARK   21  A    between atoms: _44  and  _46
REMARK   22  A    between atoms: _46  and  _47
REMARK   23  A    between atoms: _46  and  _49
REMARK   24  A    between atoms: _49  and  _50
REMARK   25  A    between atoms: _55  and  _56
REMARK   26  A    between atoms: _58  and  _60
REMARK   27  A    between atoms: _60  and  _61
REMARK   28  A    between atoms: _60  and  _63
REMARK   29  A    between atoms: _63  and  _64
REMARK   30  A    between atoms: _67  and  _69
REMARK   31  A    between atoms: _69  and  _70
REMARK   32  A    between atoms: _69  and  _72
REMARK   33  A    between atoms: _75  and  _77
REMARK   34  A    between atoms: _77  and  _78
REMARK   35  A    between atoms: _77  and  _80
REMARK   36  A    between atoms: _80  and  _81
REMARK   37  A    between atoms: _84  and  _86
REMARK   38  A    between atoms: _86  and  _87
REMARK   39  A    between atoms: _86  and  _89
REMARK   40  A    between atoms: _89  and  _90
REMARK   41  A    between atoms: _93  and  _95
REMARK   42  A    between atoms: _95  and  _96
REMARK   43  A    between atoms: _98  and  _100
REMARK   44  A    between atoms: _100  and  _101
REMARK   45  A    between atoms: _100  and  _103
REMARK   46  A    between atoms: _103  and  _104
REMARK   47  A    between atoms: _106  and  _108
REMARK   48  A    between atoms: _108  and  _109
REMARK   49  A    between atoms: _108  and  _111
REMARK   50  A    between atoms: _111  and  _112
REMARK   51  A    between atoms: _114  and  _116
REMARK   52  A    between atoms: _116  and  _117
REMARK   53  A    between atoms: _116  and  _119
REMARK   54  A    between atoms: _119  and  _120
REMARK   55  A    between atoms: _125  and  _127
REMARK   56  A    between atoms: _127  and  _128
REMARK   57  A    between atoms: _127  and  _130
REMARK   58  A    between atoms: _130  and  _131
REMARK   59  A    between atoms: _136  and  _137
REMARK   60  A    between atoms: _139  and  _141
REMARK   61  A    between atoms: _141  and  _142
REMARK   62  A    between atoms: _141  and  _144
REMARK   63  A    between atoms: _148  and  _149
REMARK   64  A    between atoms: _154  and  _156
REMARK   65  A    between atoms: _156  and  _157
REMARK   66  A    between atoms: _156  and  _159
REMARK   67  A    between atoms: _159  and  _160
REMARK   68  A    between atoms: _165  and  _166
REMARK   69  A    between atoms: _168  and  _170
REMARK   70  A    between atoms: _170  and  _171
REMARK   71  A    between atoms: _170  and  _173
REMARK   72  A    between atoms: _173  and  _174
REMARK   73  A    between atoms: _177  and  _179
REMARK   74  A    between atoms: _179  and  _180
REMARK   75  A    between atoms: _179  and  _182
REMARK   76  A    between atoms: _182  and  _183
REMARK   77  A    between atoms: _183  and  _184
REMARK   78  A    between atoms: _189  and  _191
REMARK   79  A    between atoms: _191  and  _192
REMARK   80  A    between atoms: _194  and  _196
REMARK   81  A    between atoms: _196  and  _197
REMARK   82  A    between atoms: _196  and  _199
REMARK   83  A    between atoms: _199  and  _200
REMARK   84  A    between atoms: _200  and  _201
REMARK   85  A    between atoms: _201  and  _202
REMARK   86  A    between atoms: _202  and  _203
REMARK   87  A    between atoms: _207  and  _209
REMARK   88  A    between atoms: _209  and  _210
REMARK   89  A    between atoms: _209  and  _212
REMARK   90  A    between atoms: _212  and  _213
REMARK   91  A    between atoms: _223  and  _225
REMARK   92  A    between atoms: _225  and  _226
REMARK   93  A    between atoms: _225  and  _228
REMARK   94  A    between atoms: _228  and  _229
REMARK   95  A    between atoms: _232  and  _234
REMARK   96  A    between atoms: _234  and  _235
REMARK   97  A    between atoms: _234  and  _237
REMARK   98  A    between atoms: _237  and  _238
REMARK   99  A    between atoms: _238  and  _239
REMARK  100  A    between atoms: _239  and  _240
REMARK  101  A    between atoms: _240  and  _241
REMARK  102  A    between atoms: _245  and  _247
REMARK  103  A    between atoms: _247  and  _248
REMARK  104  A    between atoms: _247  and  _250
REMARK  105  A    between atoms: _250  and  _251
REMARK  106  A    between atoms: _257  and  _259
REMARK  107  A    between atoms: _259  and  _260
REMARK  108  A    between atoms: _259  and  _262
REMARK  109  A    between atoms: _262  and  _263
REMARK  110  A    between atoms: _269  and  _271
REMARK  111  A    between atoms: _271  and  _272
REMARK  112  A    between atoms: _271  and  _274
REMARK  113  A    between atoms: _274  and  _275
REMARK  114  A    between atoms: _278  and  _280
REMARK  115  A    between atoms: _280  and  _281
REMARK  116  A    between atoms: _280  and  _283
REMARK  117  A    between atoms: _283  and  _284
REMARK  118  A    between atoms: _286  and  _288
REMARK  119  A    between atoms: _288  and  _289
REMARK  120  A    between atoms: _288  and  _291
REMARK  121  A    between atoms: _291  and  _292
REMARK  122  A    between atoms: _302  and  _304
REMARK  123  A    between atoms: _304  and  _305
REMARK  124  A    between atoms: _307  and  _309
REMARK  125  A    between atoms: _309  and  _310
REMARK  126  A    between atoms: _309  and  _312
REMARK  127  A    between atoms: _312  and  _313
REMARK  128  A    between atoms: _316  and  _318
REMARK  129  A    between atoms: _318  and  _319
REMARK  130  A    between atoms: _318  and  _321
REMARK  131  A    between atoms: _321  and  _322
REMARK  132  A    between atoms: _325  and  _327
REMARK  133  A    between atoms: _327  and  _328
REMARK  134  A    between atoms: _330  and  _332
REMARK  135  A    between atoms: _332  and  _333
REMARK  136  A    between atoms: _332  and  _335
REMARK  137  A    between atoms: _335  and  _336
REMARK  138  A    between atoms: _339  and  _341
REMARK  139  A    between atoms: _341  and  _342
REMARK  140  A    between atoms: _345  and  _347
REMARK  141  A    between atoms: _347  and  _348
REMARK  142  A    between atoms: _347  and  _350
REMARK  143  A    between atoms: _350  and  _351
REMARK  144  A    between atoms: _356  and  _357
REMARK  145  A    between atoms: _359  and  _361
REMARK  146  A    between atoms: _361  and  _362
REMARK  147  A    between atoms: _361  and  _364
REMARK  148  A    between atoms: _364  and  _365
REMARK  149  A    between atoms: _365  and  _366
REMARK  150  A    between atoms: _369  and  _371
REMARK  151  A    between atoms: _371  and  _372
REMARK  152  A    between atoms: _371  and  _374
REMARK  153  A    between atoms: _374  and  _375
REMARK  154  A    between atoms: _378  and  _380
REMARK  155  A    between atoms: _380  and  _381
REMARK  156  A    between atoms: _384  and  _386
REMARK  157  A    between atoms: _386  and  _387
REMARK  158  A    between atoms: _386  and  _389
REMARK  159  A    between atoms: _389  and  _390
REMARK  160  A    between atoms: _390  and  _391
REMARK  161  A    between atoms: _391  and  _392
REMARK  162  A    between atoms: _401  and  _403
REMARK  163  A    between atoms: _403  and  _404
REMARK  164  A    between atoms: _403  and  _406
REMARK  165  A    between atoms: _406  and  _407
REMARK  166  A    between atoms: _417  and  _419
REMARK  167  A    between atoms: _419  and  _420
REMARK  168  A    between atoms: _419  and  _422
REMARK  169  A    between atoms: _422  and  _423
REMARK  170  A    between atoms: _428  and  _429
REMARK  171  A    between atoms: _431  and  _433
REMARK  172  A    between atoms: _433  and  _434
REMARK  173  A    between atoms: _433  and  _436
REMARK  174  A    between atoms: _436  and  _437
REMARK  175  A    between atoms: _442  and  _443
REMARK  176  A    between atoms: _445  and  _447
REMARK  177  A    between atoms: _447  and  _448
REMARK  178  A    between atoms: _447  and  _450
REMARK  179  A    between atoms: _450  and  _451
REMARK  180  A    between atoms: _451  and  _452
REMARK  181  A    between atoms: _452  and  _453
REMARK  182  A    between atoms: _453  and  _454
REMARK  183  A    between atoms: _458  and  _460
REMARK  184  A    between atoms: _460  and  _461
REMARK  185  A    between atoms: _460  and  _463
REMARK  186  A    between atoms: _463  and  _464
REMARK  187  A    between atoms: _467  and  _469
REMARK  188  A    between atoms: _469  and  _470
REMARK  189  A    between atoms: _469  and  _472
REMARK  190  A    between atoms: _475  and  _477
REMARK  191  A    between atoms: _477  and  _478
REMARK  192  A    between atoms: _477  and  _480
REMARK  193  A    between atoms: _480  and  _481
REMARK  194  A    between atoms: _484  and  _486
REMARK  195  A    between atoms: _486  and  _487
REMARK  196  A    between atoms: _486  and  _489
REMARK  197  A    between atoms: _489  and  _490
REMARK  198  A    between atoms: _492  and  _494
REMARK  199  A    between atoms: _494  and  _495
REMARK  200  A    between atoms: _497  and  _499
REMARK  201  A    between atoms: _499  and  _500
REMARK  202  A    between atoms: _499  and  _502
REMARK  203  A    between atoms: _502  and  _503
REMARK  204  A    between atoms: _506  and  _508
REMARK  205  A    between atoms: _508  and  _509
REMARK  206  A    between atoms: _508  and  _511
REMARK  207  A    between atoms: _511  and  _512
REMARK  208  A    between atoms: _515  and  _517
REMARK  209  A    between atoms: _517  and  _518
REMARK  210  A    between atoms: _517  and  _520
REMARK  211  A    between atoms: _520  and  _521
REMARK  212  A    between atoms: _526  and  _528
REMARK  213  A    between atoms: _528  and  _529
REMARK  214  A    between atoms: _528  and  _531
REMARK  215  A    between atoms: _531  and  _532
REMARK  216  A    between atoms: _532  and  _533
REMARK  217  A    between atoms: _533  and  _534
REMARK  218  A    between atoms: _543  and  _545
REMARK  219  A    between atoms: _545  and  _546
REMARK  220  A    between atoms: _545  and  _548
REMARK  221  A    between atoms: _548  and  _549
REMARK  222  A    between atoms: _549  and  _550
REMARK  223  A    between atoms: _550  and  _551
REMARK  224  A    between atoms: _560  and  _562
REMARK  225  A    between atoms: _562  and  _563
REMARK  226  A    between atoms: _562  and  _565
REMARK  227  A    between atoms: _565  and  _566
REMARK  228  A    between atoms: _568  and  _570
REMARK  229  A    between atoms: _570  and  _571
REMARK  230  A    between atoms: _570  and  _573
REMARK  231  A    between atoms: _573  and  _574
REMARK  232  A    between atoms: _574  and  _575
REMARK  233  A    between atoms: _580  and  _582
REMARK  234  A    between atoms: _582  and  _583
REMARK  235  A    between atoms: _582  and  _585
REMARK  236  A    between atoms: _585  and  _586
REMARK  237  A    between atoms: _588  and  _590
REMARK  238  A    between atoms: _590  and  _591
REMARK  239  A    between atoms: _590  and  _593
REMARK  240  A    between atoms: _593  and  _594
REMARK  241  A    between atoms: _596  and  _598
REMARK  242  A    between atoms: _598  and  _599
REMARK  243  A    between atoms: _598  and  _601
REMARK  244  A    between atoms: _601  and  _602
REMARK  245  A    between atoms: _605  and  _607
REMARK  246  A    between atoms: _607  and  _608
REMARK  247  A    between atoms: _607  and  _610
REMARK  248  A    between atoms: _610  and  _611
REMARK  249  A    between atoms: _614  and  _616
REMARK  250  A    between atoms: _616  and  _617
REMARK  251  A    between atoms: _616  and  _619
REMARK  252  A    between atoms: _622  and  _624
REMARK  253  A    between atoms: _624  and  _625
REMARK  254  A    between atoms: _627  and  _629
REMARK  255  A    between atoms: _629  and  _630
REMARK  256  A    between atoms: _633  and  _635
REMARK  257  A    between atoms: _635  and  _636
REMARK  258  A    between atoms: _635  and  _638
REMARK                            x       y       z     vdW  Elec       q    Type
REMARK                         _______ _______ _______ _____ _____    ______ ____
ROOT
ATOM      1  O   HOH     1       9.312   8.845  29.984  0.00  0.00    +0.000 OA
ENDROOT
TORSDOF 0
