REMARK  Name = ../refined-set-2016/2gkl/2gkl_pocket.pdb
REMARK  150 active torsions:
REMARK  status: ('A' for Active; 'I' for Inactive)
REMARK    1  A    between atoms: _1  and  _3
REMARK    2  A    between atoms: _3  and  _4
REMARK    3  A    between atoms: _3  and  _6
REMARK    4  A    between atoms: _6  and  _7
REMARK    5  A    between atoms: _12  and  _13
REMARK    6  A    between atoms: _15  and  _17
REMARK    7  A    between atoms: _17  and  _18
REMARK    8  A    between atoms: _17  and  _20
REMARK    9  A    between atoms: _23  and  _25
REMARK   10  A    between atoms: _25  and  _26
REMARK   11  A    between atoms: _25  and  _28
REMARK   12  A    between atoms: _28  and  _29
REMARK   13  A    between atoms: _29  and  _30
REMARK   14  A    between atoms: _35  and  _37
REMARK   15  A    between atoms: _37  and  _38
REMARK   16  A    between atoms: _37  and  _40
REMARK   17  A    between atoms: _40  and  _41
REMARK   18  A    between atoms: _41  and  _42
REMARK   19  A    between atoms: _45  and  _47
REMARK   20  A    between atoms: _47  and  _48
REMARK   21  A    between atoms: _47  and  _50
REMARK   22  A    between atoms: _50  and  _51
REMARK   23  A    between atoms: _56  and  _58
REMARK   24  A    between atoms: _58  and  _59
REMARK   25  A    between atoms: _58  and  _61
REMARK   26  A    between atoms: _61  and  _62
REMARK   27  A    between atoms: _72  and  _74
REMARK   28  A    between atoms: _74  and  _75
REMARK   29  A    between atoms: _74  and  _77
REMARK   30  A    between atoms: _77  and  _78
REMARK   31  A    between atoms: _83  and  _85
REMARK   32  A    between atoms: _85  and  _86
REMARK   33  A    between atoms: _85  and  _88
REMARK   34  A    between atoms: _88  and  _89
REMARK   35  A    between atoms: _94  and  _96
REMARK   36  A    between atoms: _96  and  _97
REMARK   37  A    between atoms: _96  and  _99
REMARK   38  A    between atoms: _99  and  _100
REMARK   39  A    between atoms: _103  and  _105
REMARK   40  A    between atoms: _105  and  _106
REMARK   41  A    between atoms: _105  and  _108
REMARK   42  A    between atoms: _108  and  _109
REMARK   43  A    between atoms: _109  and  _111
REMARK   44  A    between atoms: _111  and  ZN_362
REMARK   45  A    between atoms: _112  and  _114
REMARK   46  A    between atoms: _114  and  _115
REMARK   47  A    between atoms: _114  and  _117
REMARK   48  A    between atoms: _117  and  _118
REMARK   49  A    between atoms: _118  and  _119
REMARK   50  A    between atoms: _119  and  _120
REMARK   51  A    between atoms: _129  and  _131
REMARK   52  A    between atoms: _131  and  _132
REMARK   53  A    between atoms: _131  and  _134
REMARK   54  A    between atoms: _134  and  _135
REMARK   55  A    between atoms: _138  and  _140
REMARK   56  A    between atoms: _140  and  _141
REMARK   57  A    between atoms: _140  and  _143
REMARK   58  A    between atoms: _143  and  _144
REMARK   59  A    between atoms: _150  and  _152
REMARK   60  A    between atoms: _152  and  _153
REMARK   61  A    between atoms: _152  and  _155
REMARK   62  A    between atoms: _155  and  _156
REMARK   63  A    between atoms: _159  and  _161
REMARK   64  A    between atoms: _161  and  _162
REMARK   65  A    between atoms: _164  and  _166
REMARK   66  A    between atoms: _166  and  _167
REMARK   67  A    between atoms: _166  and  _169
REMARK   68  A    between atoms: _169  and  _170
REMARK   69  A    between atoms: _173  and  _175
REMARK   70  A    between atoms: _175  and  _176
REMARK   71  A    between atoms: _175  and  _178
REMARK   72  A    between atoms: _178  and  _179
REMARK   73  A    between atoms: _184  and  _186
REMARK   74  A    between atoms: _186  and  _187
REMARK   75  A    between atoms: _186  and  _189
REMARK   76  A    between atoms: _189  and  _190
REMARK   77  A    between atoms: _193  and  _195
REMARK   78  A    between atoms: _195  and  _196
REMARK   79  A    between atoms: _195  and  _198
REMARK   80  A    between atoms: _198  and  _199
REMARK   81  A    between atoms: _204  and  _206
REMARK   82  A    between atoms: _206  and  _207
REMARK   83  A    between atoms: _206  and  _209
REMARK   84  A    between atoms: _209  and  _210
REMARK   85  A    between atoms: _210  and  ZN_362
REMARK   86  A    between atoms: _211  and  _213
REMARK   87  A    between atoms: _213  and  _214
REMARK   88  A    between atoms: _213  and  _216
REMARK   89  A    between atoms: _216  and  _217
REMARK   90  A    between atoms: _220  and  _222
REMARK   91  A    between atoms: _222  and  _223
REMARK   92  A    between atoms: _222  and  _225
REMARK   93  A    between atoms: _225  and  _226
REMARK   94  A    between atoms: _229  and  _231
REMARK   95  A    between atoms: _231  and  _232
REMARK   96  A    between atoms: _231  and  _234
REMARK   97  A    between atoms: _234  and  _235
REMARK   98  A    between atoms: _235  and  _236
REMARK   99  A    between atoms: _236  and  _237
REMARK  100  A    between atoms: _237  and  _238
REMARK  101  A    between atoms: _242  and  _244
REMARK  102  A    between atoms: _244  and  _245
REMARK  103  A    between atoms: _244  and  _247
REMARK  104  A    between atoms: _247  and  _248
REMARK  105  A    between atoms: _248  and  _249
REMARK  106  A    between atoms: _249  and  _250
REMARK  107  A    between atoms: _250  and  _251
REMARK  108  A    between atoms: _255  and  _257
REMARK  109  A    between atoms: _257  and  _258
REMARK  110  A    between atoms: _257  and  _260
REMARK  111  A    between atoms: _260  and  _261
REMARK  112  A    between atoms: _264  and  _266
REMARK  113  A    between atoms: _266  and  _267
REMARK  114  A    between atoms: _269  and  _271
REMARK  115  A    between atoms: _271  and  _272
REMARK  116  A    between atoms: _271  and  _274
REMARK  117  A    between atoms: _274  and  _275
REMARK  118  A    between atoms: _280  and  _282
REMARK  119  A    between atoms: _282  and  _283
REMARK  120  A    between atoms: _282  and  _285
REMARK  121  A    between atoms: _285  and  _286
REMARK  122  A    between atoms: _289  and  _291
REMARK  123  A    between atoms: _291  and  _292
REMARK  124  A    between atoms: _291  and  _294
REMARK  125  A    between atoms: _294  and  _295
REMARK  126  A    between atoms: _297  and  _299
REMARK  127  A    between atoms: _299  and  _300
REMARK  128  A    between atoms: _299  and  _302
REMARK  129  A    between atoms: _302  and  _303
REMARK  130  A    between atoms: _309  and  _311
REMARK  131  A    between atoms: _311  and  _312
REMARK  132  A    between atoms: _311  and  _314
REMARK  133  A    between atoms: _314  and  _315
REMARK  134  A    between atoms: _320  and  _321
REMARK  135  A    between atoms: _323  and  _325
REMARK  136  A    between atoms: _325  and  _326
REMARK  137  A    between atoms: _328  and  _330
REMARK  138  A    between atoms: _330  and  _331
REMARK  139  A    between atoms: _330  and  _333
REMARK  140  A    between atoms: _333  and  _334
REMARK  141  A    between atoms: _338  and  ZN_362
REMARK  142  A    between atoms: _339  and  _341
REMARK  143  A    between atoms: _341  and  _342
REMARK  144  A    between atoms: _341  and  _344
REMARK  145  A    between atoms: _344  and  _345
REMARK  146  A    between atoms: _348  and  _350
REMARK  147  A    between atoms: _350  and  _351
REMARK  148  A    between atoms: _350  and  _353
REMARK  149  A    between atoms: _353  and  _354
REMARK  150  A    between atoms: _359  and  _360
REMARK                            x       y       z     vdW  Elec       q    Type
REMARK                         _______ _______ _______ _____ _____    ______ ____
ROOT
ATOM      1  CA  GLN A   3      16.343  42.661  61.318  0.00  0.00    +0.149 C 
ENDROOT
BRANCH   1   4
ATOM      2  C   VAL A   2      15.880  44.864  62.262  0.00  0.00    +0.241 C 
ATOM      3  O   VAL A   2      15.213  44.367  63.171  0.00  0.00    -0.273 OA
ATOM      4  N   GLN A   3      16.472  44.132  61.317  0.00  0.00    -0.297 N 
ATOM      5  H   GLN A   3      17.029  44.601  60.574  0.00  0.00    +0.150 HD
BRANCH   2   6
ATOM      6  CA  VAL A   2      16.041  46.379  62.181  0.00  0.00    +0.148 C 
BRANCH   6   8
ATOM      7  C   TYR A   1      13.934  47.030  60.780  0.00  0.00    +0.239 C 
ATOM      8  N   VAL A   2      14.715  46.925  62.040  0.00  0.00    -0.297 N 
ATOM      9  H   VAL A   2      14.260  47.280  62.905  0.00  0.00    +0.150 HD
ATOM     10  O   TYR A   1      14.577  46.708  59.772  0.00  0.00    -0.274 OA
BRANCH   7  11
ATOM     11  CA  TYR A   1      12.446  47.288  60.715  0.00  0.00    +0.149 C 
BRANCH  11  12
ATOM     12  N   TYR A   1      11.803  46.290  59.896  0.00  0.00    -0.238 NA
ATOM     13  H   TYR A   1      11.238  46.606  59.082  0.00  0.00    +0.142 HD
ENDBRANCH  11  12
BRANCH  11  14
ATOM     14  CB  TYR A   1      11.776  47.382  62.105  0.00  0.00    +0.053 C 
BRANCH  14  15
ATOM     15  CG  TYR A   1      10.293  47.559  61.944  0.00  0.00    -0.020 A 
ATOM     16  CD2 TYR A   1       9.427  46.528  62.221  0.00  0.00    -0.001 A 
ATOM     17  CE2 TYR A   1       8.056  46.659  62.027  0.00  0.00    +0.036 A 
ATOM     18  CZ  TYR A   1       7.558  47.847  61.516  0.00  0.00    +0.134 A 
ATOM     19  CE1 TYR A   1       8.412  48.889  61.212  0.00  0.00    +0.036 A 
ATOM     20  CD1 TYR A   1       9.768  48.741  61.423  0.00  0.00    -0.001 A 
BRANCH  18  21
ATOM     21  OH  TYR A   1       6.220  47.961  61.310  0.00  0.00    -0.506 OA
ATOM     22  HH  TYR A   1       6.019  48.859  60.945  0.00  0.00    +0.292 HD
ENDBRANCH  18  21
ENDBRANCH  14  15
ENDBRANCH  11  14
ENDBRANCH   7  11
ENDBRANCH   6   8
BRANCH   6  23
ATOM     23  CB  VAL A   2      16.686  46.958  63.423  0.00  0.00    +0.027 C 
ATOM     24  CG2 VAL A   2      18.026  46.296  63.704  0.00  0.00    +0.002 C 
ATOM     25  CG1 VAL A   2      16.834  48.513  63.244  0.00  0.00    +0.002 C 
ENDBRANCH   6  23
ENDBRANCH   2   6
ENDBRANCH   1   4
BRANCH   1  26
ATOM     26  C   GLN A   3      16.494  42.088  62.708  0.00  0.00    +0.241 C 
ATOM     27  O   GLN A   3      17.479  42.358  63.388  0.00  0.00    -0.273 OA
ATOM     28  N   GLU A   4      15.523  41.260  63.110  0.00  0.00    -0.297 N 
ATOM     29  H   GLU A   4      14.673  41.149  62.522  0.00  0.00    +0.150 HD
BRANCH  28  30
ATOM     30  CA  GLU A   4      15.632  40.510  64.355  0.00  0.00    +0.149 C 
BRANCH  30  31
ATOM     31  C   GLU A   4      15.420  39.029  64.054  0.00  0.00    +0.241 C 
ATOM     32  N   ASN A   5      16.124  38.176  64.781  0.00  0.00    -0.298 N 
ATOM     33  H   ASN A   5      16.801  38.535  65.484  0.00  0.00    +0.150 HD
ATOM     34  O   GLU A   4      14.648  38.675  63.144  0.00  0.00    -0.273 OA
BRANCH  32  35
ATOM     35  CA  ASN A   5      15.960  36.742  64.606  0.00  0.00    +0.146 C 
BRANCH  35  36
ATOM     36  C   ASN A   5      15.341  36.150  65.859  0.00  0.00    +0.227 C 
ATOM     37  O   ASN A   5      15.727  36.517  66.975  0.00  0.00    -0.286 OA
ENDBRANCH  35  36
BRANCH  35  38
ATOM     38  CB  ASN A   5      17.287  36.069  64.300  0.00  0.00    +0.112 C 
BRANCH  38  39
ATOM     39  CG  ASN A   5      18.056  36.772  63.206  0.00  0.00    +0.222 C 
ATOM     40  ND2 ASN A   5      19.303  37.141  63.493  0.00  0.00    -0.329 N 
ATOM     41 HD21 ASN A   5      19.707  36.925  64.427  0.00  0.00    +0.145 HD
ATOM     42 HD22 ASN A   5      19.873  37.645  62.784  0.00  0.00    +0.145 HD
ATOM     43  OD1 ASN A   5      17.532  37.002  62.120  0.00  0.00    -0.275 OA
ENDBRANCH  38  39
ENDBRANCH  35  38
ENDBRANCH  32  35
ENDBRANCH  30  31
BRANCH  30  44
ATOM     44  CB  GLU A   4      14.619  40.999  65.395  0.00  0.00    +0.041 C 
BRANCH  44  45
ATOM     45  CG  GLU A   4      13.139  40.842  65.043  0.00  0.00    +0.116 C 
BRANCH  45  46
ATOM     46  CD  GLU A   4      12.557  39.466  65.376  0.00  0.00    +0.365 C 
ATOM     47  OE2 GLU A   4      13.286  38.639  65.966  0.00  0.00    -0.246 OA
ATOM     48  OE1 GLU A   4      11.385  39.193  65.008  0.00  0.00    -0.246 OA
ENDBRANCH  45  46
ENDBRANCH  44  45
ENDBRANCH  30  44
ENDBRANCH  28  30
ENDBRANCH   1  26
BRANCH   1  49
ATOM     49  CB  GLN A   3      17.357  41.972  60.414  0.00  0.00    +0.039 C 
BRANCH  49  50
ATOM     50  CG  GLN A   3      17.163  40.451  60.360  0.00  0.00    +0.087 C 
BRANCH  50  51
ATOM     51  CD  GLN A   3      18.196  39.744  59.540  0.00  0.00    +0.219 C 
ATOM     52  NE2 GLN A   3      18.520  38.505  59.928  0.00  0.00    -0.329 N 
ATOM     53 HE21 GLN A   3      18.057  38.082  60.758  0.00  0.00    +0.145 HD
ATOM     54 HE22 GLN A   3      19.235  37.965  59.400  0.00  0.00    +0.145 HD
ATOM     55  OE1 GLN A   3      18.714  40.305  58.556  0.00  0.00    -0.275 OA
ENDBRANCH  50  51
ENDBRANCH  49  50
ENDBRANCH   1  49
TORSDOF 22
REMARK  Name = ../refined-set-2016/2gkl/2gkl_pocket.pdb
REMARK  150 active torsions:
REMARK  status: ('A' for Active; 'I' for Inactive)
REMARK    1  A    between atoms: _1  and  _3
REMARK    2  A    between atoms: _3  and  _4
REMARK    3  A    between atoms: _3  and  _6
REMARK    4  A    between atoms: _6  and  _7
REMARK    5  A    between atoms: _12  and  _13
REMARK    6  A    between atoms: _15  and  _17
REMARK    7  A    between atoms: _17  and  _18
REMARK    8  A    between atoms: _17  and  _20
REMARK    9  A    between atoms: _23  and  _25
REMARK   10  A    between atoms: _25  and  _26
REMARK   11  A    between atoms: _25  and  _28
REMARK   12  A    between atoms: _28  and  _29
REMARK   13  A    between atoms: _29  and  _30
REMARK   14  A    between atoms: _35  and  _37
REMARK   15  A    between atoms: _37  and  _38
REMARK   16  A    between atoms: _37  and  _40
REMARK   17  A    between atoms: _40  and  _41
REMARK   18  A    between atoms: _41  and  _42
REMARK   19  A    between atoms: _45  and  _47
REMARK   20  A    between atoms: _47  and  _48
REMARK   21  A    between atoms: _47  and  _50
REMARK   22  A    between atoms: _50  and  _51
REMARK   23  A    between atoms: _56  and  _58
REMARK   24  A    between atoms: _58  and  _59
REMARK   25  A    between atoms: _58  and  _61
REMARK   26  A    between atoms: _61  and  _62
REMARK   27  A    between atoms: _72  and  _74
REMARK   28  A    between atoms: _74  and  _75
REMARK   29  A    between atoms: _74  and  _77
REMARK   30  A    between atoms: _77  and  _78
REMARK   31  A    between atoms: _83  and  _85
REMARK   32  A    between atoms: _85  and  _86
REMARK   33  A    between atoms: _85  and  _88
REMARK   34  A    between atoms: _88  and  _89
REMARK   35  A    between atoms: _94  and  _96
REMARK   36  A    between atoms: _96  and  _97
REMARK   37  A    between atoms: _96  and  _99
REMARK   38  A    between atoms: _99  and  _100
REMARK   39  A    between atoms: _103  and  _105
REMARK   40  A    between atoms: _105  and  _106
REMARK   41  A    between atoms: _105  and  _108
REMARK   42  A    between atoms: _108  and  _109
REMARK   43  A    between atoms: _109  and  _111
REMARK   44  A    between atoms: _111  and  ZN_362
REMARK   45  A    between atoms: _112  and  _114
REMARK   46  A    between atoms: _114  and  _115
REMARK   47  A    between atoms: _114  and  _117
REMARK   48  A    between atoms: _117  and  _118
REMARK   49  A    between atoms: _118  and  _119
REMARK   50  A    between atoms: _119  and  _120
REMARK   51  A    between atoms: _129  and  _131
REMARK   52  A    between atoms: _131  and  _132
REMARK   53  A    between atoms: _131  and  _134
REMARK   54  A    between atoms: _134  and  _135
REMARK   55  A    between atoms: _138  and  _140
REMARK   56  A    between atoms: _140  and  _141
REMARK   57  A    between atoms: _140  and  _143
REMARK   58  A    between atoms: _143  and  _144
REMARK   59  A    between atoms: _150  and  _152
REMARK   60  A    between atoms: _152  and  _153
REMARK   61  A    between atoms: _152  and  _155
REMARK   62  A    between atoms: _155  and  _156
REMARK   63  A    between atoms: _159  and  _161
REMARK   64  A    between atoms: _161  and  _162
REMARK   65  A    between atoms: _164  and  _166
REMARK   66  A    between atoms: _166  and  _167
REMARK   67  A    between atoms: _166  and  _169
REMARK   68  A    between atoms: _169  and  _170
REMARK   69  A    between atoms: _173  and  _175
REMARK   70  A    between atoms: _175  and  _176
REMARK   71  A    between atoms: _175  and  _178
REMARK   72  A    between atoms: _178  and  _179
REMARK   73  A    between atoms: _184  and  _186
REMARK   74  A    between atoms: _186  and  _187
REMARK   75  A    between atoms: _186  and  _189
REMARK   76  A    between atoms: _189  and  _190
REMARK   77  A    between atoms: _193  and  _195
REMARK   78  A    between atoms: _195  and  _196
REMARK   79  A    between atoms: _195  and  _198
REMARK   80  A    between atoms: _198  and  _199
REMARK   81  A    between atoms: _204  and  _206
REMARK   82  A    between atoms: _206  and  _207
REMARK   83  A    between atoms: _206  and  _209
REMARK   84  A    between atoms: _209  and  _210
REMARK   85  A    between atoms: _210  and  ZN_362
REMARK   86  A    between atoms: _211  and  _213
REMARK   87  A    between atoms: _213  and  _214
REMARK   88  A    between atoms: _213  and  _216
REMARK   89  A    between atoms: _216  and  _217
REMARK   90  A    between atoms: _220  and  _222
REMARK   91  A    between atoms: _222  and  _223
REMARK   92  A    between atoms: _222  and  _225
REMARK   93  A    between atoms: _225  and  _226
REMARK   94  A    between atoms: _229  and  _231
REMARK   95  A    between atoms: _231  and  _232
REMARK   96  A    between atoms: _231  and  _234
REMARK   97  A    between atoms: _234  and  _235
REMARK   98  A    between atoms: _235  and  _236
REMARK   99  A    between atoms: _236  and  _237
REMARK  100  A    between atoms: _237  and  _238
REMARK  101  A    between atoms: _242  and  _244
REMARK  102  A    between atoms: _244  and  _245
REMARK  103  A    between atoms: _244  and  _247
REMARK  104  A    between atoms: _247  and  _248
REMARK  105  A    between atoms: _248  and  _249
REMARK  106  A    between atoms: _249  and  _250
REMARK  107  A    between atoms: _250  and  _251
REMARK  108  A    between atoms: _255  and  _257
REMARK  109  A    between atoms: _257  and  _258
REMARK  110  A    between atoms: _257  and  _260
REMARK  111  A    between atoms: _260  and  _261
REMARK  112  A    between atoms: _264  and  _266
REMARK  113  A    between atoms: _266  and  _267
REMARK  114  A    between atoms: _269  and  _271
REMARK  115  A    between atoms: _271  and  _272
REMARK  116  A    between atoms: _271  and  _274
REMARK  117  A    between atoms: _274  and  _275
REMARK  118  A    between atoms: _280  and  _282
REMARK  119  A    between atoms: _282  and  _283
REMARK  120  A    between atoms: _282  and  _285
REMARK  121  A    between atoms: _285  and  _286
REMARK  122  A    between atoms: _289  and  _291
REMARK  123  A    between atoms: _291  and  _292
REMARK  124  A    between atoms: _291  and  _294
REMARK  125  A    between atoms: _294  and  _295
REMARK  126  A    between atoms: _297  and  _299
REMARK  127  A    between atoms: _299  and  _300
REMARK  128  A    between atoms: _299  and  _302
REMARK  129  A    between atoms: _302  and  _303
REMARK  130  A    between atoms: _309  and  _311
REMARK  131  A    between atoms: _311  and  _312
REMARK  132  A    between atoms: _311  and  _314
REMARK  133  A    between atoms: _314  and  _315
REMARK  134  A    between atoms: _320  and  _321
REMARK  135  A    between atoms: _323  and  _325
REMARK  136  A    between atoms: _325  and  _326
REMARK  137  A    between atoms: _328  and  _330
REMARK  138  A    between atoms: _330  and  _331
REMARK  139  A    between atoms: _330  and  _333
REMARK  140  A    between atoms: _333  and  _334
REMARK  141  A    between atoms: _338  and  ZN_362
REMARK  142  A    between atoms: _339  and  _341
REMARK  143  A    between atoms: _341  and  _342
REMARK  144  A    between atoms: _341  and  _344
REMARK  145  A    between atoms: _344  and  _345
REMARK  146  A    between atoms: _348  and  _350
REMARK  147  A    between atoms: _350  and  _351
REMARK  148  A    between atoms: _350  and  _353
REMARK  149  A    between atoms: _353  and  _354
REMARK  150  A    between atoms: _359  and  _360
REMARK                            x       y       z     vdW  Elec       q    Type
REMARK                         _______ _______ _______ _____ _____    ______ ____
ROOT
ATOM      1  CG  TRP A   1      10.350  44.062  64.779  0.00  0.00    -0.002 A 
ATOM      2  CD2 TRP A   1      11.090  44.980  65.594  0.00  0.00    +0.013 A 
ATOM      3  CE3 TRP A   1      10.763  45.783  66.701  0.00  0.00    +0.001 A 
ATOM      4  CZ3 TRP A   1      11.767  46.557  67.282  0.00  0.00    +0.000 A 
ATOM      5  CH2 TRP A   1      13.079  46.517  66.792  0.00  0.00    +0.001 A 
ATOM      6  CZ2 TRP A   1      13.422  45.743  65.712  0.00  0.00    +0.017 A 
ATOM      7  CE2 TRP A   1      12.420  44.968  65.130  0.00  0.00    +0.056 A 
ATOM      8  NE1 TRP A   1      12.472  44.107  64.063  0.00  0.00    -0.352 N 
ATOM      9  HE1 TRP A   1      13.323  43.886  63.507  0.00  0.00    +0.166 HD
ATOM     10  CD1 TRP A   1      11.230  43.588  63.848  0.00  0.00    +0.068 A 
ENDROOT
BRANCH   1  11
ATOM     11  CB  TRP A   1       8.873  43.804  64.824  0.00  0.00    +0.053 C 
BRANCH  11  12
ATOM     12  CA  TRP A   1       8.284  43.094  66.054  0.00  0.00    +0.137 C 
BRANCH  12  13
ATOM     13  N   TRP A   1       8.429  41.639  65.900  0.00  0.00    -0.239 NA
ATOM     14  H   TRP A   1       8.794  41.263  65.002  0.00  0.00    +0.142 HD
ENDBRANCH  12  13
BRANCH  12  15
ATOM     15  C   TRP A   1       6.879  43.664  66.268  0.00  0.00    +0.224 C 
ATOM     16  O   TRP A   1       6.700  44.612  67.048  0.00  0.00    -0.287 OA
ENDBRANCH  12  15
ENDBRANCH  11  12
ENDBRANCH   1  11
TORSDOF 4
REMARK  Name = ../refined-set-2016/2gkl/2gkl_pocket.pdb
REMARK  150 active torsions:
REMARK  status: ('A' for Active; 'I' for Inactive)
REMARK    1  A    between atoms: _1  and  _3
REMARK    2  A    between atoms: _3  and  _4
REMARK    3  A    between atoms: _3  and  _6
REMARK    4  A    between atoms: _6  and  _7
REMARK    5  A    between atoms: _12  and  _13
REMARK    6  A    between atoms: _15  and  _17
REMARK    7  A    between atoms: _17  and  _18
REMARK    8  A    between atoms: _17  and  _20
REMARK    9  A    between atoms: _23  and  _25
REMARK   10  A    between atoms: _25  and  _26
REMARK   11  A    between atoms: _25  and  _28
REMARK   12  A    between atoms: _28  and  _29
REMARK   13  A    between atoms: _29  and  _30
REMARK   14  A    between atoms: _35  and  _37
REMARK   15  A    between atoms: _37  and  _38
REMARK   16  A    between atoms: _37  and  _40
REMARK   17  A    between atoms: _40  and  _41
REMARK   18  A    between atoms: _41  and  _42
REMARK   19  A    between atoms: _45  and  _47
REMARK   20  A    between atoms: _47  and  _48
REMARK   21  A    between atoms: _47  and  _50
REMARK   22  A    between atoms: _50  and  _51
REMARK   23  A    between atoms: _56  and  _58
REMARK   24  A    between atoms: _58  and  _59
REMARK   25  A    between atoms: _58  and  _61
REMARK   26  A    between atoms: _61  and  _62
REMARK   27  A    between atoms: _72  and  _74
REMARK   28  A    between atoms: _74  and  _75
REMARK   29  A    between atoms: _74  and  _77
REMARK   30  A    between atoms: _77  and  _78
REMARK   31  A    between atoms: _83  and  _85
REMARK   32  A    between atoms: _85  and  _86
REMARK   33  A    between atoms: _85  and  _88
REMARK   34  A    between atoms: _88  and  _89
REMARK   35  A    between atoms: _94  and  _96
REMARK   36  A    between atoms: _96  and  _97
REMARK   37  A    between atoms: _96  and  _99
REMARK   38  A    between atoms: _99  and  _100
REMARK   39  A    between atoms: _103  and  _105
REMARK   40  A    between atoms: _105  and  _106
REMARK   41  A    between atoms: _105  and  _108
REMARK   42  A    between atoms: _108  and  _109
REMARK   43  A    between atoms: _109  and  _111
REMARK   44  A    between atoms: _111  and  ZN_362
REMARK   45  A    between atoms: _112  and  _114
REMARK   46  A    between atoms: _114  and  _115
REMARK   47  A    between atoms: _114  and  _117
REMARK   48  A    between atoms: _117  and  _118
REMARK   49  A    between atoms: _118  and  _119
REMARK   50  A    between atoms: _119  and  _120
REMARK   51  A    between atoms: _129  and  _131
REMARK   52  A    between atoms: _131  and  _132
REMARK   53  A    between atoms: _131  and  _134
REMARK   54  A    between atoms: _134  and  _135
REMARK   55  A    between atoms: _138  and  _140
REMARK   56  A    between atoms: _140  and  _141
REMARK   57  A    between atoms: _140  and  _143
REMARK   58  A    between atoms: _143  and  _144
REMARK   59  A    between atoms: _150  and  _152
REMARK   60  A    between atoms: _152  and  _153
REMARK   61  A    between atoms: _152  and  _155
REMARK   62  A    between atoms: _155  and  _156
REMARK   63  A    between atoms: _159  and  _161
REMARK   64  A    between atoms: _161  and  _162
REMARK   65  A    between atoms: _164  and  _166
REMARK   66  A    between atoms: _166  and  _167
REMARK   67  A    between atoms: _166  and  _169
REMARK   68  A    between atoms: _169  and  _170
REMARK   69  A    between atoms: _173  and  _175
REMARK   70  A    between atoms: _175  and  _176
REMARK   71  A    between atoms: _175  and  _178
REMARK   72  A    between atoms: _178  and  _179
REMARK   73  A    between atoms: _184  and  _186
REMARK   74  A    between atoms: _186  and  _187
REMARK   75  A    between atoms: _186  and  _189
REMARK   76  A    between atoms: _189  and  _190
REMARK   77  A    between atoms: _193  and  _195
REMARK   78  A    between atoms: _195  and  _196
REMARK   79  A    between atoms: _195  and  _198
REMARK   80  A    between atoms: _198  and  _199
REMARK   81  A    between atoms: _204  and  _206
REMARK   82  A    between atoms: _206  and  _207
REMARK   83  A    between atoms: _206  and  _209
REMARK   84  A    between atoms: _209  and  _210
REMARK   85  A    between atoms: _210  and  ZN_362
REMARK   86  A    between atoms: _211  and  _213
REMARK   87  A    between atoms: _213  and  _214
REMARK   88  A    between atoms: _213  and  _216
REMARK   89  A    between atoms: _216  and  _217
REMARK   90  A    between atoms: _220  and  _222
REMARK   91  A    between atoms: _222  and  _223
REMARK   92  A    between atoms: _222  and  _225
REMARK   93  A    between atoms: _225  and  _226
REMARK   94  A    between atoms: _229  and  _231
REMARK   95  A    between atoms: _231  and  _232
REMARK   96  A    between atoms: _231  and  _234
REMARK   97  A    between atoms: _234  and  _235
REMARK   98  A    between atoms: _235  and  _236
REMARK   99  A    between atoms: _236  and  _237
REMARK  100  A    between atoms: _237  and  _238
REMARK  101  A    between atoms: _242  and  _244
REMARK  102  A    between atoms: _244  and  _245
REMARK  103  A    between atoms: _244  and  _247
REMARK  104  A    between atoms: _247  and  _248
REMARK  105  A    between atoms: _248  and  _249
REMARK  106  A    between atoms: _249  and  _250
REMARK  107  A    between atoms: _250  and  _251
REMARK  108  A    between atoms: _255  and  _257
REMARK  109  A    between atoms: _257  and  _258
REMARK  110  A    between atoms: _257  and  _260
REMARK  111  A    between atoms: _260  and  _261
REMARK  112  A    between atoms: _264  and  _266
REMARK  113  A    between atoms: _266  and  _267
REMARK  114  A    between atoms: _269  and  _271
REMARK  115  A    between atoms: _271  and  _272
REMARK  116  A    between atoms: _271  and  _274
REMARK  117  A    between atoms: _274  and  _275
REMARK  118  A    between atoms: _280  and  _282
REMARK  119  A    between atoms: _282  and  _283
REMARK  120  A    between atoms: _282  and  _285
REMARK  121  A    between atoms: _285  and  _286
REMARK  122  A    between atoms: _289  and  _291
REMARK  123  A    between atoms: _291  and  _292
REMARK  124  A    between atoms: _291  and  _294
REMARK  125  A    between atoms: _294  and  _295
REMARK  126  A    between atoms: _297  and  _299
REMARK  127  A    between atoms: _299  and  _300
REMARK  128  A    between atoms: _299  and  _302
REMARK  129  A    between atoms: _302  and  _303
REMARK  130  A    between atoms: _309  and  _311
REMARK  131  A    between atoms: _311  and  _312
REMARK  132  A    between atoms: _311  and  _314
REMARK  133  A    between atoms: _314  and  _315
REMARK  134  A    between atoms: _320  and  _321
REMARK  135  A    between atoms: _323  and  _325
REMARK  136  A    between atoms: _325  and  _326
REMARK  137  A    between atoms: _328  and  _330
REMARK  138  A    between atoms: _330  and  _331
REMARK  139  A    between atoms: _330  and  _333
REMARK  140  A    between atoms: _333  and  _334
REMARK  141  A    between atoms: _338  and  ZN_362
REMARK  142  A    between atoms: _339  and  _341
REMARK  143  A    between atoms: _341  and  _342
REMARK  144  A    between atoms: _341  and  _344
REMARK  145  A    between atoms: _344  and  _345
REMARK  146  A    between atoms: _348  and  _350
REMARK  147  A    between atoms: _350  and  _351
REMARK  148  A    between atoms: _350  and  _353
REMARK  149  A    between atoms: _353  and  _354
REMARK  150  A    between atoms: _359  and  _360
REMARK                            x       y       z     vdW  Elec       q    Type
REMARK                         _______ _______ _______ _____ _____    ______ ____
ROOT
ATOM      1  CB  ASN A   1      14.148  41.307  76.873  0.00  0.00    +0.110 C 
ENDROOT
BRANCH   1   2
ATOM      2  CG  ASN A   1      14.188  41.805  75.437  0.00  0.00    +0.221 C 
ATOM      3  OD1 ASN A   1      13.167  42.162  74.870  0.00  0.00    -0.275 OA
ATOM      4  ND2 ASN A   1      15.389  41.810  74.838  0.00  0.00    -0.329 N 
ATOM      5 HD21 ASN A   1      16.232  41.497  75.360  0.00  0.00    +0.145 HD
ATOM      6 HD22 ASN A   1      15.477  42.127  73.851  0.00  0.00    +0.145 HD
ENDBRANCH   1   2
BRANCH   1   7
ATOM      7  CA  ASN A   1      12.862  40.529  77.214  0.00  0.00    +0.142 C 
BRANCH   7   8
ATOM      8  N   ASN A   1      12.710  39.313  76.403  0.00  0.00    -0.239 NA
ATOM      9  H   ASN A   1      12.077  39.339  75.578  0.00  0.00    +0.142 HD
ENDBRANCH   7   8
BRANCH   7  10
ATOM     10  C   ASN A   1      11.594  41.359  77.049  0.00  0.00    +0.225 C 
ATOM     11  O   ASN A   1      10.681  40.936  76.343  0.00  0.00    -0.287 OA
ENDBRANCH   7  10
ENDBRANCH   1   7
TORSDOF 4
REMARK  Name = ../refined-set-2016/2gkl/2gkl_pocket.pdb
REMARK  150 active torsions:
REMARK  status: ('A' for Active; 'I' for Inactive)
REMARK    1  A    between atoms: _1  and  _3
REMARK    2  A    between atoms: _3  and  _4
REMARK    3  A    between atoms: _3  and  _6
REMARK    4  A    between atoms: _6  and  _7
REMARK    5  A    between atoms: _12  and  _13
REMARK    6  A    between atoms: _15  and  _17
REMARK    7  A    between atoms: _17  and  _18
REMARK    8  A    between atoms: _17  and  _20
REMARK    9  A    between atoms: _23  and  _25
REMARK   10  A    between atoms: _25  and  _26
REMARK   11  A    between atoms: _25  and  _28
REMARK   12  A    between atoms: _28  and  _29
REMARK   13  A    between atoms: _29  and  _30
REMARK   14  A    between atoms: _35  and  _37
REMARK   15  A    between atoms: _37  and  _38
REMARK   16  A    between atoms: _37  and  _40
REMARK   17  A    between atoms: _40  and  _41
REMARK   18  A    between atoms: _41  and  _42
REMARK   19  A    between atoms: _45  and  _47
REMARK   20  A    between atoms: _47  and  _48
REMARK   21  A    between atoms: _47  and  _50
REMARK   22  A    between atoms: _50  and  _51
REMARK   23  A    between atoms: _56  and  _58
REMARK   24  A    between atoms: _58  and  _59
REMARK   25  A    between atoms: _58  and  _61
REMARK   26  A    between atoms: _61  and  _62
REMARK   27  A    between atoms: _72  and  _74
REMARK   28  A    between atoms: _74  and  _75
REMARK   29  A    between atoms: _74  and  _77
REMARK   30  A    between atoms: _77  and  _78
REMARK   31  A    between atoms: _83  and  _85
REMARK   32  A    between atoms: _85  and  _86
REMARK   33  A    between atoms: _85  and  _88
REMARK   34  A    between atoms: _88  and  _89
REMARK   35  A    between atoms: _94  and  _96
REMARK   36  A    between atoms: _96  and  _97
REMARK   37  A    between atoms: _96  and  _99
REMARK   38  A    between atoms: _99  and  _100
REMARK   39  A    between atoms: _103  and  _105
REMARK   40  A    between atoms: _105  and  _106
REMARK   41  A    between atoms: _105  and  _108
REMARK   42  A    between atoms: _108  and  _109
REMARK   43  A    between atoms: _109  and  _111
REMARK   44  A    between atoms: _111  and  ZN_362
REMARK   45  A    between atoms: _112  and  _114
REMARK   46  A    between atoms: _114  and  _115
REMARK   47  A    between atoms: _114  and  _117
REMARK   48  A    between atoms: _117  and  _118
REMARK   49  A    between atoms: _118  and  _119
REMARK   50  A    between atoms: _119  and  _120
REMARK   51  A    between atoms: _129  and  _131
REMARK   52  A    between atoms: _131  and  _132
REMARK   53  A    between atoms: _131  and  _134
REMARK   54  A    between atoms: _134  and  _135
REMARK   55  A    between atoms: _138  and  _140
REMARK   56  A    between atoms: _140  and  _141
REMARK   57  A    between atoms: _140  and  _143
REMARK   58  A    between atoms: _143  and  _144
REMARK   59  A    between atoms: _150  and  _152
REMARK   60  A    between atoms: _152  and  _153
REMARK   61  A    between atoms: _152  and  _155
REMARK   62  A    between atoms: _155  and  _156
REMARK   63  A    between atoms: _159  and  _161
REMARK   64  A    between atoms: _161  and  _162
REMARK   65  A    between atoms: _164  and  _166
REMARK   66  A    between atoms: _166  and  _167
REMARK   67  A    between atoms: _166  and  _169
REMARK   68  A    between atoms: _169  and  _170
REMARK   69  A    between atoms: _173  and  _175
REMARK   70  A    between atoms: _175  and  _176
REMARK   71  A    between atoms: _175  and  _178
REMARK   72  A    between atoms: _178  and  _179
REMARK   73  A    between atoms: _184  and  _186
REMARK   74  A    between atoms: _186  and  _187
REMARK   75  A    between atoms: _186  and  _189
REMARK   76  A    between atoms: _189  and  _190
REMARK   77  A    between atoms: _193  and  _195
REMARK   78  A    between atoms: _195  and  _196
REMARK   79  A    between atoms: _195  and  _198
REMARK   80  A    between atoms: _198  and  _199
REMARK   81  A    between atoms: _204  and  _206
REMARK   82  A    between atoms: _206  and  _207
REMARK   83  A    between atoms: _206  and  _209
REMARK   84  A    between atoms: _209  and  _210
REMARK   85  A    between atoms: _210  and  ZN_362
REMARK   86  A    between atoms: _211  and  _213
REMARK   87  A    between atoms: _213  and  _214
REMARK   88  A    between atoms: _213  and  _216
REMARK   89  A    between atoms: _216  and  _217
REMARK   90  A    between atoms: _220  and  _222
REMARK   91  A    between atoms: _222  and  _223
REMARK   92  A    between atoms: _222  and  _225
REMARK   93  A    between atoms: _225  and  _226
REMARK   94  A    between atoms: _229  and  _231
REMARK   95  A    between atoms: _231  and  _232
REMARK   96  A    between atoms: _231  and  _234
REMARK   97  A    between atoms: _234  and  _235
REMARK   98  A    between atoms: _235  and  _236
REMARK   99  A    between atoms: _236  and  _237
REMARK  100  A    between atoms: _237  and  _238
REMARK  101  A    between atoms: _242  and  _244
REMARK  102  A    between atoms: _244  and  _245
REMARK  103  A    between atoms: _244  and  _247
REMARK  104  A    between atoms: _247  and  _248
REMARK  105  A    between atoms: _248  and  _249
REMARK  106  A    between atoms: _249  and  _250
REMARK  107  A    between atoms: _250  and  _251
REMARK  108  A    between atoms: _255  and  _257
REMARK  109  A    between atoms: _257  and  _258
REMARK  110  A    between atoms: _257  and  _260
REMARK  111  A    between atoms: _260  and  _261
REMARK  112  A    between atoms: _264  and  _266
REMARK  113  A    between atoms: _266  and  _267
REMARK  114  A    between atoms: _269  and  _271
REMARK  115  A    between atoms: _271  and  _272
REMARK  116  A    between atoms: _271  and  _274
REMARK  117  A    between atoms: _274  and  _275
REMARK  118  A    between atoms: _280  and  _282
REMARK  119  A    between atoms: _282  and  _283
REMARK  120  A    between atoms: _282  and  _285
REMARK  121  A    between atoms: _285  and  _286
REMARK  122  A    between atoms: _289  and  _291
REMARK  123  A    between atoms: _291  and  _292
REMARK  124  A    between atoms: _291  and  _294
REMARK  125  A    between atoms: _294  and  _295
REMARK  126  A    between atoms: _297  and  _299
REMARK  127  A    between atoms: _299  and  _300
REMARK  128  A    between atoms: _299  and  _302
REMARK  129  A    between atoms: _302  and  _303
REMARK  130  A    between atoms: _309  and  _311
REMARK  131  A    between atoms: _311  and  _312
REMARK  132  A    between atoms: _311  and  _314
REMARK  133  A    between atoms: _314  and  _315
REMARK  134  A    between atoms: _320  and  _321
REMARK  135  A    between atoms: _323  and  _325
REMARK  136  A    between atoms: _325  and  _326
REMARK  137  A    between atoms: _328  and  _330
REMARK  138  A    between atoms: _330  and  _331
REMARK  139  A    between atoms: _330  and  _333
REMARK  140  A    between atoms: _333  and  _334
REMARK  141  A    between atoms: _338  and  ZN_362
REMARK  142  A    between atoms: _339  and  _341
REMARK  143  A    between atoms: _341  and  _342
REMARK  144  A    between atoms: _341  and  _344
REMARK  145  A    between atoms: _344  and  _345
REMARK  146  A    between atoms: _348  and  _350
REMARK  147  A    between atoms: _350  and  _351
REMARK  148  A    between atoms: _350  and  _353
REMARK  149  A    between atoms: _353  and  _354
REMARK  150  A    between atoms: _359  and  _360
REMARK                            x       y       z     vdW  Elec       q    Type
REMARK                         _______ _______ _______ _____ _____    ______ ____
ROOT
ATOM      1 ZN   UNK A   3      17.182  43.620  70.024  0.00  0.00    +0.000 Zn
ENDROOT
BRANCH   1   2
ATOM      2  N   UNK A   3      17.967  42.780  68.188  0.00  0.00    +0.000 N 
ATOM      3  C   UNK A   3      19.232  42.307  67.943  0.00  0.00    +0.000 A 
ATOM      4  C   UNK A   3      19.382  42.261  66.599  0.00  0.00    +0.000 A 
ATOM      5  N   UNK A   3      18.176  42.657  66.056  0.00  0.00    +0.000 NA
ATOM      6  C   UNK A   3      17.346  42.970  67.039  0.00  0.00    +0.000 A 
BRANCH   4   7
ATOM      7  C   UNK A   3      20.507  41.779  65.765  0.00  0.00    +0.000 C 
BRANCH   7   8
ATOM      8  C   UNK A   3      20.265  40.375  65.210  0.00  0.00    +0.000 C 
BRANCH   8   9
ATOM      9  N   UNK A   3      20.179  39.387  66.278  0.00  0.00    +0.000 N 
ATOM     10  C   GLY A   1      19.031  38.969  66.816  0.00  0.00    +0.000 C 
ATOM     11  O   GLY A   1      17.938  39.483  66.569  0.00  0.00    +0.000 OA
ATOM     12  H   UNK A   3      21.065  38.983  66.643  0.00  0.00    +0.000 HD
BRANCH  10  13
ATOM     13  CA  GLY A   1      19.143  37.836  67.827  0.00  0.00    +0.000 C 
BRANCH  13  14
ATOM     14  N   GLY A   1      20.456  37.188  67.910  0.00  0.00    +0.000 NA
ATOM     15  H   GLY A   1      21.099  37.441  68.687  0.00  0.00    +0.000 HD
ENDBRANCH  13  14
ENDBRANCH  10  13
ENDBRANCH   8   9
BRANCH   8  16
ATOM     16  C   UNK A   3      21.409  39.959  64.318  0.00  0.00    +0.000 C 
ATOM     17  O   UNK A   3      22.132  39.032  64.658  0.00  0.00    +0.000 OA
ATOM     18  N   UNK A   3      21.537  40.626  63.174  0.00  0.00    +0.000 N 
ATOM     19  H   UNK A   3      20.880  41.409  62.982  0.00  0.00    +0.000 HD
BRANCH  18  20
ATOM     20  C   UNK A   3      22.560  40.312  62.168  0.00  0.00    +0.000 C 
BRANCH  20  21
ATOM     21  C   UNK A   3      22.343  38.892  61.622  0.00  0.00    +0.000 C 
ATOM     22  O   UNK A   3      21.213  38.395  61.672  0.00  0.00    +0.000 OA
ENDBRANCH  20  21
BRANCH  20  23
ATOM     23  C   UNK A   3      23.951  40.553  62.747  0.00  0.00    +0.000 C 
BRANCH  23  24
ATOM     24  C   UNK A   3      24.034  41.895  63.518  0.00  0.00    +0.000 C 
ATOM     25  O   UNK A   3      24.350  41.890  64.740  0.00  0.00    +0.000 OA
ATOM     26  O   UNK A   3      23.777  42.938  62.890  0.00  0.00    +0.000 OA
ENDBRANCH  23  24
ENDBRANCH  20  23
ENDBRANCH  18  20
ENDBRANCH   8  16
ENDBRANCH   7   8
ENDBRANCH   4   7
ENDBRANCH   1   2
BRANCH   1  27
ATOM     27  O   UNK A   3      15.202  43.429  69.264  0.00  0.00    +0.000 OA
BRANCH  27  28
ATOM     28  C   UNK A   3      14.030  43.639  69.644  0.00  0.00    +0.000 C 
ATOM     29  O   UNK A   3      13.734  44.032  70.789  0.00  0.00    +0.000 OA
BRANCH  28  30
ATOM     30  C   UNK A   3      12.982  43.462  68.583  0.00  0.00    +0.000 C 
BRANCH  30  31
ATOM     31  C   UNK A   3      11.553  43.296  69.110  0.00  0.00    +0.000 C 
BRANCH  31  32
ATOM     32  C   UNK A   3      11.299  41.869  69.606  0.00  0.00    +0.000 C 
ATOM     33  N   LEU A   4      11.032  41.715  70.901  0.00  0.00    +0.000 N 
ATOM     34  H   LEU A   4      11.041  42.562  71.505  0.00  0.00    +0.000 HD
ATOM     35  O   UNK A   3      11.292  40.952  68.794  0.00  0.00    +0.000 OA
BRANCH  33  36
ATOM     36  CA  LEU A   4      10.723  40.413  71.535  0.00  0.00    +0.000 C 
BRANCH  36  37
ATOM     37  C   LEU A   4       9.274  40.244  72.021  0.00  0.00    +0.000 C 
ATOM     38  O   LEU A   4       8.843  39.105  72.303  0.00  0.00    +0.000 OA
ENDBRANCH  36  37
BRANCH  36  39
ATOM     39  CB  LEU A   4      11.690  40.132  72.698  0.00  0.00    +0.000 C 
BRANCH  39  40
ATOM     40  CG  LEU A   4      13.174  40.247  72.354  0.00  0.00    +0.000 C 
BRANCH  40  41
ATOM     41  CD  LEU A   4      13.587  39.277  71.245  0.00  0.00    +0.000 C 
BRANCH  41  42
ATOM     42  NE  LEU A   4      14.882  39.652  70.679  0.00  0.00    +0.330 N 
ATOM     43  HE  LEU A   4      15.561  40.142  71.296  0.00  0.00    +0.000 HD
ATOM     44  CZ  LEU A   4      15.246  39.406  69.424  0.00  0.00    +0.000 C 
ATOM     45  NH2 LEU A   4      16.417  39.819  68.993  0.00  0.00    +0.330 N 
ATOM     46 HH21 LEU A   4      17.054  40.336  69.633  0.00  0.00    +0.000 HD
ATOM     47 HH22 LEU A   4      16.707  39.629  68.012  0.00  0.00    +0.000 HD
ATOM     48  NH1 LEU A   4      14.425  38.798  68.574  0.00  0.00    +0.330 N 
ATOM     49 HH11 LEU A   4      13.477  38.505  68.886  0.00  0.00    +0.000 HD
ATOM     50 HH12 LEU A   4      14.730  38.615  67.597  0.00  0.00    +0.000 HD
ENDBRANCH  41  42
ENDBRANCH  40  41
ENDBRANCH  39  40
ENDBRANCH  36  39
ENDBRANCH  33  36
ENDBRANCH  31  32
BRANCH  31  52
ATOM     51  C   UNK A   2       9.824  44.622  70.190  0.00  0.00    +0.000 C 
ATOM     52  N   UNK A   3      11.125  44.357  70.037  0.00  0.00    +0.000 N 
ATOM     53  H   UNK A   3      11.834  44.899  70.572  0.00  0.00    +0.000 HD
ATOM     54  O   UNK A   2       8.967  43.999  69.598  0.00  0.00    +0.000 OA
BRANCH  51  55
ATOM     55  C   UNK A   2       9.437  45.744  71.166  0.00  0.00    +0.000 C 
BRANCH  55  58
ATOM     56  C   GLY A   1      10.459  44.809  73.187  0.00  0.00    +0.000 C 
ATOM     57  O   GLY A   1       9.971  43.691  73.050  0.00  0.00    +0.000 OA
ATOM     58  N   UNK A   2      10.309  45.805  72.313  0.00  0.00    +0.000 N 
ATOM     59  H   UNK A   2      10.853  46.678  72.468  0.00  0.00    +0.000 HD
BRANCH  56  60
ATOM     60  CA  GLY A   1      11.361  45.139  74.373  0.00  0.00    +0.000 C 
BRANCH  60  61
ATOM     61  N   GLY A   1      11.252  44.221  75.499  0.00  0.00    +0.000 NA
ATOM     62  H   GLY A   1      11.957  43.464  75.606  0.00  0.00    +0.000 HD
ENDBRANCH  60  61
BRANCH  60  63
ATOM     63  CB  GLY A   1      12.812  45.227  73.908  0.00  0.00    +0.000 C 
BRANCH  63  64
ATOM     64  CG  GLY A   1      13.646  46.132  74.760  0.00  0.00    +0.000 A 
ATOM     65  CD2 GLY A   1      13.440  46.618  76.009  0.00  0.00    +0.000 A 
ATOM     66  NE2 GLY A   1      14.506  47.428  76.310  0.00  0.00    +0.000 NA
ATOM     67  CE1 GLY A   1      15.335  47.442  75.279  0.00  0.00    +0.000 A 
ATOM     68  ND1 GLY A   1      14.841  46.669  74.330  0.00  0.00    +0.000 NA
ENDBRANCH  63  64
ENDBRANCH  60  63
ENDBRANCH  56  60
ENDBRANCH  55  58
BRANCH  55  69
ATOM     69  C   UNK A   2       9.479  47.109  70.422  0.00  0.00    +0.000 C 
ATOM     70  C   UNK A   2       8.454  48.110  71.047  0.00  0.00    +0.000 C 
BRANCH  69  71
ATOM     71  O   UNK A   2      10.819  47.636  70.495  0.00  0.00    +0.000 OA
ATOM     72  H   UNK A   2      10.856  48.506  70.024  0.00  0.00    +0.000 HD
ENDBRANCH  69  71
ENDBRANCH  55  69
ENDBRANCH  51  55
ENDBRANCH  31  52
ENDBRANCH  30  31
ENDBRANCH  28  30
ENDBRANCH  27  28
ENDBRANCH   1  27
BRANCH   1  73
ATOM     73  S   UNK A   3      16.906  42.099  71.726  0.00  0.00    +0.000 S 
BRANCH  73  74
ATOM     74  C   UNK A   3      18.471  41.811  72.550  0.00  0.00    +0.000 C 
BRANCH  74  75
ATOM     75  C   UNK A   3      19.238  40.616  71.993  0.00  0.00    +0.000 C 
BRANCH  75  76
ATOM     76  C   UNK A   3      20.645  40.589  72.601  0.00  0.00    +0.000 C 
ATOM     77  N   UNK A   3      20.966  39.537  73.353  0.00  0.00    +0.000 N 
ATOM     78  H   UNK A   3      20.313  38.729  73.404  0.00  0.00    +0.000 HD
ATOM     79  O   UNK A   3      21.451  41.498  72.357  0.00  0.00    +0.000 OA
BRANCH  77  80
ATOM     80  C   UNK A   3      22.212  39.495  74.105  0.00  0.00    +0.000 C 
BRANCH  80  81
ATOM     81  C   UNK A   3      23.425  39.192  73.219  0.00  0.00    +0.000 C 
ATOM     82  O   UNK A   3      24.505  39.758  73.418  0.00  0.00    +0.000 OA
ATOM     83  N   LEU A   4      23.264  38.254  72.289  0.00  0.00    +0.000 N 
ATOM     84  H   LEU A   4      22.322  37.833  72.158  0.00  0.00    +0.000 HD
BRANCH  83  85
ATOM     85  CA  LEU A   4      24.364  37.795  71.446  0.00  0.00    +0.000 C 
BRANCH  85  86
ATOM     86  C   LEU A   4      24.003  38.075  70.008  0.00  0.00    +0.000 C 
ATOM     87  O   LEU A   4      22.887  37.788  69.570  0.00  0.00    +0.000 OA
ATOM     88  N   LYS A   5      24.963  38.652  69.290  0.00  0.00    +0.000 N 
ATOM     89  H   LYS A   5      25.914  38.731  69.703  0.00  0.00    +0.000 HD
BRANCH  88  90
ATOM     90  CA  LYS A   5      24.737  39.180  67.944  0.00  0.00    +0.000 C 
BRANCH  90  91
ATOM     91  C   LYS A   5      26.102  39.601  67.416  0.00  0.00    +0.000 C 
ATOM     92  O   LYS A   5      27.081  39.545  68.162  0.00  0.00    +0.000 OA
ENDBRANCH  90  91
BRANCH  90  93
ATOM     93  CB  LYS A   5      23.763  40.377  67.981  0.00  0.00    +0.000 C 
BRANCH  93  94
ATOM     94  CG  LYS A   5      24.187  41.482  68.934  0.00  0.00    +0.000 C 
BRANCH  94  95
ATOM     95  CD  LYS A   5      23.035  42.304  69.457  0.00  0.00    +0.000 C 
BRANCH  95  96
ATOM     96  CE  LYS A   5      23.481  43.193  70.621  0.00  0.00    +0.000 C 
BRANCH  96  97
ATOM     97  NZ  LYS A   5      22.330  43.813  71.332  0.00  0.00    +0.000 N 
ATOM     98  HZ1 LYS A   5      22.683  44.405  72.111  0.00  0.00    +0.000 HD
ATOM     99  HZ2 LYS A   5      21.716  43.065  71.714  0.00  0.00    +0.000 HD
ATOM    100  HZ3 LYS A   5      21.789  44.401  70.666  0.00  0.00    +0.000 HD
ENDBRANCH  96  97
ENDBRANCH  95  96
ENDBRANCH  94  95
ENDBRANCH  93  94
ENDBRANCH  90  93
ENDBRANCH  88  90
ENDBRANCH  85  86
BRANCH  85 101
ATOM    101  CB  LEU A   4      24.650  36.312  71.652  0.00  0.00    +0.000 C 
BRANCH 101 102
ATOM    102  CG  LEU A   4      25.020  35.887  73.084  0.00  0.00    +0.000 C 
ATOM    103  CD2 LEU A   4      26.308  36.573  73.529  0.00  0.00    +0.000 C 
ATOM    104  CD1 LEU A   4      25.103  34.373  73.183  0.00  0.00    +0.000 C 
ENDBRANCH 101 102
ENDBRANCH  85 101
ENDBRANCH  83  85
ENDBRANCH  80  81
BRANCH  80 105
ATOM    105  C   UNK A   3      22.129  38.463  75.263  0.00  0.00    +0.000 C 
ATOM    106  C   UNK A   3      23.384  38.500  76.090  0.00  0.00    +0.000 C 
BRANCH 105 107
ATOM    107  C   UNK A   3      20.879  38.732  76.141  0.00  0.00    +0.000 C 
ATOM    108  C   UNK A   3      20.596  37.661  77.213  0.00  0.00    +0.000 C 
ENDBRANCH 105 107
ENDBRANCH  80 105
ENDBRANCH  77  80
ENDBRANCH  75  76
BRANCH  75 109
ATOM    109  N   UNK A   3      18.483  39.387  72.238  0.00  0.00    +0.000 N 
ATOM    110  H   UNK A   3      17.641  39.424  72.848  0.00  0.00    +0.000 HD
ATOM    111  C   GLY A   1      18.842  38.226  71.704  0.00  0.00    +0.000 C 
ATOM    112  O   GLY A   1      19.709  38.156  70.814  0.00  0.00    +0.000 OA
BRANCH 111 113
ATOM    113  CA  GLY A   1      18.144  36.944  72.219  0.00  0.00    +0.000 C 
BRANCH 113 114
ATOM    114  N   GLY A   1      18.995  35.815  71.851  0.00  0.00    +0.000 NA
ATOM    115  H   GLY A   1      18.622  35.066  71.234  0.00  0.00    +0.000 HD
ENDBRANCH 113 114
BRANCH 113 116
ATOM    116  CB  GLY A   1      17.966  36.878  73.756  0.00  0.00    +0.000 C 
BRANCH 116 117
ATOM    117  CG  GLY A   1      16.906  37.796  74.334  0.00  0.00    +0.000 C 
ATOM    118  OD1 GLY A   1      16.839  37.922  75.577  0.00  0.00    +0.000 OA
ATOM    119  ND2 GLY A   1      16.067  38.398  73.510  0.00  0.00    +0.000 N 
ATOM    120 HD21 GLY A   1      15.313  39.006  73.888  0.00  0.00    +0.000 HD
ATOM    121 HD22 GLY A   1      16.161  38.264  72.483  0.00  0.00    +0.000 HD
ENDBRANCH 116 117
ENDBRANCH 113 116
ENDBRANCH 111 113
ENDBRANCH  75 109
ENDBRANCH  74  75
ENDBRANCH  73  74
ENDBRANCH   1  73
TORSDOF 55
REMARK  Name = ../refined-set-2016/2gkl/2gkl_pocket.pdb
REMARK  150 active torsions:
REMARK  status: ('A' for Active; 'I' for Inactive)
REMARK    1  A    between atoms: _1  and  _3
REMARK    2  A    between atoms: _3  and  _4
REMARK    3  A    between atoms: _3  and  _6
REMARK    4  A    between atoms: _6  and  _7
REMARK    5  A    between atoms: _12  and  _13
REMARK    6  A    between atoms: _15  and  _17
REMARK    7  A    between atoms: _17  and  _18
REMARK    8  A    between atoms: _17  and  _20
REMARK    9  A    between atoms: _23  and  _25
REMARK   10  A    between atoms: _25  and  _26
REMARK   11  A    between atoms: _25  and  _28
REMARK   12  A    between atoms: _28  and  _29
REMARK   13  A    between atoms: _29  and  _30
REMARK   14  A    between atoms: _35  and  _37
REMARK   15  A    between atoms: _37  and  _38
REMARK   16  A    between atoms: _37  and  _40
REMARK   17  A    between atoms: _40  and  _41
REMARK   18  A    between atoms: _41  and  _42
REMARK   19  A    between atoms: _45  and  _47
REMARK   20  A    between atoms: _47  and  _48
REMARK   21  A    between atoms: _47  and  _50
REMARK   22  A    between atoms: _50  and  _51
REMARK   23  A    between atoms: _56  and  _58
REMARK   24  A    between atoms: _58  and  _59
REMARK   25  A    between atoms: _58  and  _61
REMARK   26  A    between atoms: _61  and  _62
REMARK   27  A    between atoms: _72  and  _74
REMARK   28  A    between atoms: _74  and  _75
REMARK   29  A    between atoms: _74  and  _77
REMARK   30  A    between atoms: _77  and  _78
REMARK   31  A    between atoms: _83  and  _85
REMARK   32  A    between atoms: _85  and  _86
REMARK   33  A    between atoms: _85  and  _88
REMARK   34  A    between atoms: _88  and  _89
REMARK   35  A    between atoms: _94  and  _96
REMARK   36  A    between atoms: _96  and  _97
REMARK   37  A    between atoms: _96  and  _99
REMARK   38  A    between atoms: _99  and  _100
REMARK   39  A    between atoms: _103  and  _105
REMARK   40  A    between atoms: _105  and  _106
REMARK   41  A    between atoms: _105  and  _108
REMARK   42  A    between atoms: _108  and  _109
REMARK   43  A    between atoms: _109  and  _111
REMARK   44  A    between atoms: _111  and  ZN_362
REMARK   45  A    between atoms: _112  and  _114
REMARK   46  A    between atoms: _114  and  _115
REMARK   47  A    between atoms: _114  and  _117
REMARK   48  A    between atoms: _117  and  _118
REMARK   49  A    between atoms: _118  and  _119
REMARK   50  A    between atoms: _119  and  _120
REMARK   51  A    between atoms: _129  and  _131
REMARK   52  A    between atoms: _131  and  _132
REMARK   53  A    between atoms: _131  and  _134
REMARK   54  A    between atoms: _134  and  _135
REMARK   55  A    between atoms: _138  and  _140
REMARK   56  A    between atoms: _140  and  _141
REMARK   57  A    between atoms: _140  and  _143
REMARK   58  A    between atoms: _143  and  _144
REMARK   59  A    between atoms: _150  and  _152
REMARK   60  A    between atoms: _152  and  _153
REMARK   61  A    between atoms: _152  and  _155
REMARK   62  A    between atoms: _155  and  _156
REMARK   63  A    between atoms: _159  and  _161
REMARK   64  A    between atoms: _161  and  _162
REMARK   65  A    between atoms: _164  and  _166
REMARK   66  A    between atoms: _166  and  _167
REMARK   67  A    between atoms: _166  and  _169
REMARK   68  A    between atoms: _169  and  _170
REMARK   69  A    between atoms: _173  and  _175
REMARK   70  A    between atoms: _175  and  _176
REMARK   71  A    between atoms: _175  and  _178
REMARK   72  A    between atoms: _178  and  _179
REMARK   73  A    between atoms: _184  and  _186
REMARK   74  A    between atoms: _186  and  _187
REMARK   75  A    between atoms: _186  and  _189
REMARK   76  A    between atoms: _189  and  _190
REMARK   77  A    between atoms: _193  and  _195
REMARK   78  A    between atoms: _195  and  _196
REMARK   79  A    between atoms: _195  and  _198
REMARK   80  A    between atoms: _198  and  _199
REMARK   81  A    between atoms: _204  and  _206
REMARK   82  A    between atoms: _206  and  _207
REMARK   83  A    between atoms: _206  and  _209
REMARK   84  A    between atoms: _209  and  _210
REMARK   85  A    between atoms: _210  and  ZN_362
REMARK   86  A    between atoms: _211  and  _213
REMARK   87  A    between atoms: _213  and  _214
REMARK   88  A    between atoms: _213  and  _216
REMARK   89  A    between atoms: _216  and  _217
REMARK   90  A    between atoms: _220  and  _222
REMARK   91  A    between atoms: _222  and  _223
REMARK   92  A    between atoms: _222  and  _225
REMARK   93  A    between atoms: _225  and  _226
REMARK   94  A    between atoms: _229  and  _231
REMARK   95  A    between atoms: _231  and  _232
REMARK   96  A    between atoms: _231  and  _234
REMARK   97  A    between atoms: _234  and  _235
REMARK   98  A    between atoms: _235  and  _236
REMARK   99  A    between atoms: _236  and  _237
REMARK  100  A    between atoms: _237  and  _238
REMARK  101  A    between atoms: _242  and  _244
REMARK  102  A    between atoms: _244  and  _245
REMARK  103  A    between atoms: _244  and  _247
REMARK  104  A    between atoms: _247  and  _248
REMARK  105  A    between atoms: _248  and  _249
REMARK  106  A    between atoms: _249  and  _250
REMARK  107  A    between atoms: _250  and  _251
REMARK  108  A    between atoms: _255  and  _257
REMARK  109  A    between atoms: _257  and  _258
REMARK  110  A    between atoms: _257  and  _260
REMARK  111  A    between atoms: _260  and  _261
REMARK  112  A    between atoms: _264  and  _266
REMARK  113  A    between atoms: _266  and  _267
REMARK  114  A    between atoms: _269  and  _271
REMARK  115  A    between atoms: _271  and  _272
REMARK  116  A    between atoms: _271  and  _274
REMARK  117  A    between atoms: _274  and  _275
REMARK  118  A    between atoms: _280  and  _282
REMARK  119  A    between atoms: _282  and  _283
REMARK  120  A    between atoms: _282  and  _285
REMARK  121  A    between atoms: _285  and  _286
REMARK  122  A    between atoms: _289  and  _291
REMARK  123  A    between atoms: _291  and  _292
REMARK  124  A    between atoms: _291  and  _294
REMARK  125  A    between atoms: _294  and  _295
REMARK  126  A    between atoms: _297  and  _299
REMARK  127  A    between atoms: _299  and  _300
REMARK  128  A    between atoms: _299  and  _302
REMARK  129  A    between atoms: _302  and  _303
REMARK  130  A    between atoms: _309  and  _311
REMARK  131  A    between atoms: _311  and  _312
REMARK  132  A    between atoms: _311  and  _314
REMARK  133  A    between atoms: _314  and  _315
REMARK  134  A    between atoms: _320  and  _321
REMARK  135  A    between atoms: _323  and  _325
REMARK  136  A    between atoms: _325  and  _326
REMARK  137  A    between atoms: _328  and  _330
REMARK  138  A    between atoms: _330  and  _331
REMARK  139  A    between atoms: _330  and  _333
REMARK  140  A    between atoms: _333  and  _334
REMARK  141  A    between atoms: _338  and  ZN_362
REMARK  142  A    between atoms: _339  and  _341
REMARK  143  A    between atoms: _341  and  _342
REMARK  144  A    between atoms: _341  and  _344
REMARK  145  A    between atoms: _344  and  _345
REMARK  146  A    between atoms: _348  and  _350
REMARK  147  A    between atoms: _350  and  _351
REMARK  148  A    between atoms: _350  and  _353
REMARK  149  A    between atoms: _353  and  _354
REMARK  150  A    between atoms: _359  and  _360
REMARK                            x       y       z     vdW  Elec       q    Type
REMARK                         _______ _______ _______ _____ _____    ______ ____
ROOT
ATOM      1  CA  ILE A   1      10.479  51.395  74.756  0.00  0.00    +0.133 C 
ENDROOT
BRANCH   1   2
ATOM      2  N   ILE A   1       9.802  52.145  75.836  0.00  0.00    -0.239 NA
ATOM      3  H   ILE A   1       9.306  51.636  76.595  0.00  0.00    +0.142 HD
ENDBRANCH   1   2
BRANCH   1   4
ATOM      4  CB  ILE A   1      10.630  49.876  75.081  0.00  0.00    +0.023 C 
ATOM      5  CG2 ILE A   1       9.289  49.185  75.153  0.00  0.00    +0.002 C 
BRANCH   4   6
ATOM      6  CG1 ILE A   1      11.523  49.167  74.039  0.00  0.00    +0.002 C 
ATOM      7  CD1 ILE A   1      12.981  49.695  73.986  0.00  0.00    +0.000 C 
ENDBRANCH   4   6
ENDBRANCH   1   4
BRANCH   1   8
ATOM      8  C   ILE A   1       9.802  51.602  73.383  0.00  0.00    +0.224 C 
ATOM      9  O   ILE A   1      10.465  51.634  72.348  0.00  0.00    -0.287 OA
ENDBRANCH   1   8
TORSDOF 4
REMARK  Name = ../refined-set-2016/2gkl/2gkl_pocket.pdb
REMARK  150 active torsions:
REMARK  status: ('A' for Active; 'I' for Inactive)
REMARK    1  A    between atoms: _1  and  _3
REMARK    2  A    between atoms: _3  and  _4
REMARK    3  A    between atoms: _3  and  _6
REMARK    4  A    between atoms: _6  and  _7
REMARK    5  A    between atoms: _12  and  _13
REMARK    6  A    between atoms: _15  and  _17
REMARK    7  A    between atoms: _17  and  _18
REMARK    8  A    between atoms: _17  and  _20
REMARK    9  A    between atoms: _23  and  _25
REMARK   10  A    between atoms: _25  and  _26
REMARK   11  A    between atoms: _25  and  _28
REMARK   12  A    between atoms: _28  and  _29
REMARK   13  A    between atoms: _29  and  _30
REMARK   14  A    between atoms: _35  and  _37
REMARK   15  A    between atoms: _37  and  _38
REMARK   16  A    between atoms: _37  and  _40
REMARK   17  A    between atoms: _40  and  _41
REMARK   18  A    between atoms: _41  and  _42
REMARK   19  A    between atoms: _45  and  _47
REMARK   20  A    between atoms: _47  and  _48
REMARK   21  A    between atoms: _47  and  _50
REMARK   22  A    between atoms: _50  and  _51
REMARK   23  A    between atoms: _56  and  _58
REMARK   24  A    between atoms: _58  and  _59
REMARK   25  A    between atoms: _58  and  _61
REMARK   26  A    between atoms: _61  and  _62
REMARK   27  A    between atoms: _72  and  _74
REMARK   28  A    between atoms: _74  and  _75
REMARK   29  A    between atoms: _74  and  _77
REMARK   30  A    between atoms: _77  and  _78
REMARK   31  A    between atoms: _83  and  _85
REMARK   32  A    between atoms: _85  and  _86
REMARK   33  A    between atoms: _85  and  _88
REMARK   34  A    between atoms: _88  and  _89
REMARK   35  A    between atoms: _94  and  _96
REMARK   36  A    between atoms: _96  and  _97
REMARK   37  A    between atoms: _96  and  _99
REMARK   38  A    between atoms: _99  and  _100
REMARK   39  A    between atoms: _103  and  _105
REMARK   40  A    between atoms: _105  and  _106
REMARK   41  A    between atoms: _105  and  _108
REMARK   42  A    between atoms: _108  and  _109
REMARK   43  A    between atoms: _109  and  _111
REMARK   44  A    between atoms: _111  and  ZN_362
REMARK   45  A    between atoms: _112  and  _114
REMARK   46  A    between atoms: _114  and  _115
REMARK   47  A    between atoms: _114  and  _117
REMARK   48  A    between atoms: _117  and  _118
REMARK   49  A    between atoms: _118  and  _119
REMARK   50  A    between atoms: _119  and  _120
REMARK   51  A    between atoms: _129  and  _131
REMARK   52  A    between atoms: _131  and  _132
REMARK   53  A    between atoms: _131  and  _134
REMARK   54  A    between atoms: _134  and  _135
REMARK   55  A    between atoms: _138  and  _140
REMARK   56  A    between atoms: _140  and  _141
REMARK   57  A    between atoms: _140  and  _143
REMARK   58  A    between atoms: _143  and  _144
REMARK   59  A    between atoms: _150  and  _152
REMARK   60  A    between atoms: _152  and  _153
REMARK   61  A    between atoms: _152  and  _155
REMARK   62  A    between atoms: _155  and  _156
REMARK   63  A    between atoms: _159  and  _161
REMARK   64  A    between atoms: _161  and  _162
REMARK   65  A    between atoms: _164  and  _166
REMARK   66  A    between atoms: _166  and  _167
REMARK   67  A    between atoms: _166  and  _169
REMARK   68  A    between atoms: _169  and  _170
REMARK   69  A    between atoms: _173  and  _175
REMARK   70  A    between atoms: _175  and  _176
REMARK   71  A    between atoms: _175  and  _178
REMARK   72  A    between atoms: _178  and  _179
REMARK   73  A    between atoms: _184  and  _186
REMARK   74  A    between atoms: _186  and  _187
REMARK   75  A    between atoms: _186  and  _189
REMARK   76  A    between atoms: _189  and  _190
REMARK   77  A    between atoms: _193  and  _195
REMARK   78  A    between atoms: _195  and  _196
REMARK   79  A    between atoms: _195  and  _198
REMARK   80  A    between atoms: _198  and  _199
REMARK   81  A    between atoms: _204  and  _206
REMARK   82  A    between atoms: _206  and  _207
REMARK   83  A    between atoms: _206  and  _209
REMARK   84  A    between atoms: _209  and  _210
REMARK   85  A    between atoms: _210  and  ZN_362
REMARK   86  A    between atoms: _211  and  _213
REMARK   87  A    between atoms: _213  and  _214
REMARK   88  A    between atoms: _213  and  _216
REMARK   89  A    between atoms: _216  and  _217
REMARK   90  A    between atoms: _220  and  _222
REMARK   91  A    between atoms: _222  and  _223
REMARK   92  A    between atoms: _222  and  _225
REMARK   93  A    between atoms: _225  and  _226
REMARK   94  A    between atoms: _229  and  _231
REMARK   95  A    between atoms: _231  and  _232
REMARK   96  A    between atoms: _231  and  _234
REMARK   97  A    between atoms: _234  and  _235
REMARK   98  A    between atoms: _235  and  _236
REMARK   99  A    between atoms: _236  and  _237
REMARK  100  A    between atoms: _237  and  _238
REMARK  101  A    between atoms: _242  and  _244
REMARK  102  A    between atoms: _244  and  _245
REMARK  103  A    between atoms: _244  and  _247
REMARK  104  A    between atoms: _247  and  _248
REMARK  105  A    between atoms: _248  and  _249
REMARK  106  A    between atoms: _249  and  _250
REMARK  107  A    between atoms: _250  and  _251
REMARK  108  A    between atoms: _255  and  _257
REMARK  109  A    between atoms: _257  and  _258
REMARK  110  A    between atoms: _257  and  _260
REMARK  111  A    between atoms: _260  and  _261
REMARK  112  A    between atoms: _264  and  _266
REMARK  113  A    between atoms: _266  and  _267
REMARK  114  A    between atoms: _269  and  _271
REMARK  115  A    between atoms: _271  and  _272
REMARK  116  A    between atoms: _271  and  _274
REMARK  117  A    between atoms: _274  and  _275
REMARK  118  A    between atoms: _280  and  _282
REMARK  119  A    between atoms: _282  and  _283
REMARK  120  A    between atoms: _282  and  _285
REMARK  121  A    between atoms: _285  and  _286
REMARK  122  A    between atoms: _289  and  _291
REMARK  123  A    between atoms: _291  and  _292
REMARK  124  A    between atoms: _291  and  _294
REMARK  125  A    between atoms: _294  and  _295
REMARK  126  A    between atoms: _297  and  _299
REMARK  127  A    between atoms: _299  and  _300
REMARK  128  A    between atoms: _299  and  _302
REMARK  129  A    between atoms: _302  and  _303
REMARK  130  A    between atoms: _309  and  _311
REMARK  131  A    between atoms: _311  and  _312
REMARK  132  A    between atoms: _311  and  _314
REMARK  133  A    between atoms: _314  and  _315
REMARK  134  A    between atoms: _320  and  _321
REMARK  135  A    between atoms: _323  and  _325
REMARK  136  A    between atoms: _325  and  _326
REMARK  137  A    between atoms: _328  and  _330
REMARK  138  A    between atoms: _330  and  _331
REMARK  139  A    between atoms: _330  and  _333
REMARK  140  A    between atoms: _333  and  _334
REMARK  141  A    between atoms: _338  and  ZN_362
REMARK  142  A    between atoms: _339  and  _341
REMARK  143  A    between atoms: _341  and  _342
REMARK  144  A    between atoms: _341  and  _344
REMARK  145  A    between atoms: _344  and  _345
REMARK  146  A    between atoms: _348  and  _350
REMARK  147  A    between atoms: _350  and  _351
REMARK  148  A    between atoms: _350  and  _353
REMARK  149  A    between atoms: _353  and  _354
REMARK  150  A    between atoms: _359  and  _360
REMARK                            x       y       z     vdW  Elec       q    Type
REMARK                         _______ _______ _______ _____ _____    ______ ____
ROOT
ATOM      1  C   PHE A   1      12.520  54.149  70.507  0.00  0.00    +0.239 C 
ATOM      2  N   THR A   2      11.743  53.097  70.308  0.00  0.00    -0.296 N 
ATOM      3  H   THR A   2      11.118  52.768  71.072  0.00  0.00    +0.150 HD
ATOM      4  O   PHE A   1      13.316  54.550  69.650  0.00  0.00    -0.274 OA
ENDROOT
BRANCH   1   5
ATOM      5  CA  PHE A   1      12.379  54.840  71.866  0.00  0.00    +0.149 C 
BRANCH   5   6
ATOM      6  N   PHE A   1      10.995  54.953  72.258  0.00  0.00    -0.238 NA
ATOM      7  H   PHE A   1      10.668  54.444  73.104  0.00  0.00    +0.142 HD
ENDBRANCH   5   6
BRANCH   5   8
ATOM      8  CB  PHE A   1      13.147  54.071  72.943  0.00  0.00    +0.053 C 
BRANCH   8   9
ATOM      9  CG  PHE A   1      14.572  53.834  72.601  0.00  0.00    -0.020 A 
ATOM     10  CD2 PHE A   1      15.523  54.793  72.874  0.00  0.00    -0.004 A 
ATOM     11  CE2 PHE A   1      16.839  54.575  72.561  0.00  0.00    -0.000 A 
ATOM     12  CZ  PHE A   1      17.210  53.403  71.951  0.00  0.00    -0.000 A 
ATOM     13  CE1 PHE A   1      16.281  52.451  71.660  0.00  0.00    -0.000 A 
ATOM     14  CD1 PHE A   1      14.962  52.664  71.979  0.00  0.00    -0.004 A 
ENDBRANCH   8   9
ENDBRANCH   5   8
ENDBRANCH   1   5
BRANCH   2  15
ATOM     15  CA  THR A   2      11.751  52.399  69.043  0.00  0.00    +0.164 C 
BRANCH  15  16
ATOM     16  CB  THR A   2      10.822  51.202  69.094  0.00  0.00    +0.136 C 
ATOM     17  CG2 THR A   2      10.911  50.385  67.756  0.00  0.00    +0.034 C 
BRANCH  16  18
ATOM     18  OG1 THR A   2      11.212  50.368  70.210  0.00  0.00    -0.382 OA
ATOM     19  HG1 THR A   2      11.142  50.888  71.050  0.00  0.00    +0.210 HD
ENDBRANCH  16  18
ENDBRANCH  15  16
BRANCH  15  20
ATOM     20  C   THR A   2      11.341  53.344  67.908  0.00  0.00    +0.229 C 
ATOM     21  O   THR A   2      11.934  53.328  66.844  0.00  0.00    -0.286 OA
ENDBRANCH  15  20
ENDBRANCH   2  15
TORSDOF 8
REMARK  Name = ../refined-set-2016/2gkl/2gkl_pocket.pdb
REMARK  150 active torsions:
REMARK  status: ('A' for Active; 'I' for Inactive)
REMARK    1  A    between atoms: _1  and  _3
REMARK    2  A    between atoms: _3  and  _4
REMARK    3  A    between atoms: _3  and  _6
REMARK    4  A    between atoms: _6  and  _7
REMARK    5  A    between atoms: _12  and  _13
REMARK    6  A    between atoms: _15  and  _17
REMARK    7  A    between atoms: _17  and  _18
REMARK    8  A    between atoms: _17  and  _20
REMARK    9  A    between atoms: _23  and  _25
REMARK   10  A    between atoms: _25  and  _26
REMARK   11  A    between atoms: _25  and  _28
REMARK   12  A    between atoms: _28  and  _29
REMARK   13  A    between atoms: _29  and  _30
REMARK   14  A    between atoms: _35  and  _37
REMARK   15  A    between atoms: _37  and  _38
REMARK   16  A    between atoms: _37  and  _40
REMARK   17  A    between atoms: _40  and  _41
REMARK   18  A    between atoms: _41  and  _42
REMARK   19  A    between atoms: _45  and  _47
REMARK   20  A    between atoms: _47  and  _48
REMARK   21  A    between atoms: _47  and  _50
REMARK   22  A    between atoms: _50  and  _51
REMARK   23  A    between atoms: _56  and  _58
REMARK   24  A    between atoms: _58  and  _59
REMARK   25  A    between atoms: _58  and  _61
REMARK   26  A    between atoms: _61  and  _62
REMARK   27  A    between atoms: _72  and  _74
REMARK   28  A    between atoms: _74  and  _75
REMARK   29  A    between atoms: _74  and  _77
REMARK   30  A    between atoms: _77  and  _78
REMARK   31  A    between atoms: _83  and  _85
REMARK   32  A    between atoms: _85  and  _86
REMARK   33  A    between atoms: _85  and  _88
REMARK   34  A    between atoms: _88  and  _89
REMARK   35  A    between atoms: _94  and  _96
REMARK   36  A    between atoms: _96  and  _97
REMARK   37  A    between atoms: _96  and  _99
REMARK   38  A    between atoms: _99  and  _100
REMARK   39  A    between atoms: _103  and  _105
REMARK   40  A    between atoms: _105  and  _106
REMARK   41  A    between atoms: _105  and  _108
REMARK   42  A    between atoms: _108  and  _109
REMARK   43  A    between atoms: _109  and  _111
REMARK   44  A    between atoms: _111  and  ZN_362
REMARK   45  A    between atoms: _112  and  _114
REMARK   46  A    between atoms: _114  and  _115
REMARK   47  A    between atoms: _114  and  _117
REMARK   48  A    between atoms: _117  and  _118
REMARK   49  A    between atoms: _118  and  _119
REMARK   50  A    between atoms: _119  and  _120
REMARK   51  A    between atoms: _129  and  _131
REMARK   52  A    between atoms: _131  and  _132
REMARK   53  A    between atoms: _131  and  _134
REMARK   54  A    between atoms: _134  and  _135
REMARK   55  A    between atoms: _138  and  _140
REMARK   56  A    between atoms: _140  and  _141
REMARK   57  A    between atoms: _140  and  _143
REMARK   58  A    between atoms: _143  and  _144
REMARK   59  A    between atoms: _150  and  _152
REMARK   60  A    between atoms: _152  and  _153
REMARK   61  A    between atoms: _152  and  _155
REMARK   62  A    between atoms: _155  and  _156
REMARK   63  A    between atoms: _159  and  _161
REMARK   64  A    between atoms: _161  and  _162
REMARK   65  A    between atoms: _164  and  _166
REMARK   66  A    between atoms: _166  and  _167
REMARK   67  A    between atoms: _166  and  _169
REMARK   68  A    between atoms: _169  and  _170
REMARK   69  A    between atoms: _173  and  _175
REMARK   70  A    between atoms: _175  and  _176
REMARK   71  A    between atoms: _175  and  _178
REMARK   72  A    between atoms: _178  and  _179
REMARK   73  A    between atoms: _184  and  _186
REMARK   74  A    between atoms: _186  and  _187
REMARK   75  A    between atoms: _186  and  _189
REMARK   76  A    between atoms: _189  and  _190
REMARK   77  A    between atoms: _193  and  _195
REMARK   78  A    between atoms: _195  and  _196
REMARK   79  A    between atoms: _195  and  _198
REMARK   80  A    between atoms: _198  and  _199
REMARK   81  A    between atoms: _204  and  _206
REMARK   82  A    between atoms: _206  and  _207
REMARK   83  A    between atoms: _206  and  _209
REMARK   84  A    between atoms: _209  and  _210
REMARK   85  A    between atoms: _210  and  ZN_362
REMARK   86  A    between atoms: _211  and  _213
REMARK   87  A    between atoms: _213  and  _214
REMARK   88  A    between atoms: _213  and  _216
REMARK   89  A    between atoms: _216  and  _217
REMARK   90  A    between atoms: _220  and  _222
REMARK   91  A    between atoms: _222  and  _223
REMARK   92  A    between atoms: _222  and  _225
REMARK   93  A    between atoms: _225  and  _226
REMARK   94  A    between atoms: _229  and  _231
REMARK   95  A    between atoms: _231  and  _232
REMARK   96  A    between atoms: _231  and  _234
REMARK   97  A    between atoms: _234  and  _235
REMARK   98  A    between atoms: _235  and  _236
REMARK   99  A    between atoms: _236  and  _237
REMARK  100  A    between atoms: _237  and  _238
REMARK  101  A    between atoms: _242  and  _244
REMARK  102  A    between atoms: _244  and  _245
REMARK  103  A    between atoms: _244  and  _247
REMARK  104  A    between atoms: _247  and  _248
REMARK  105  A    between atoms: _248  and  _249
REMARK  106  A    between atoms: _249  and  _250
REMARK  107  A    between atoms: _250  and  _251
REMARK  108  A    between atoms: _255  and  _257
REMARK  109  A    between atoms: _257  and  _258
REMARK  110  A    between atoms: _257  and  _260
REMARK  111  A    between atoms: _260  and  _261
REMARK  112  A    between atoms: _264  and  _266
REMARK  113  A    between atoms: _266  and  _267
REMARK  114  A    between atoms: _269  and  _271
REMARK  115  A    between atoms: _271  and  _272
REMARK  116  A    between atoms: _271  and  _274
REMARK  117  A    between atoms: _274  and  _275
REMARK  118  A    between atoms: _280  and  _282
REMARK  119  A    between atoms: _282  and  _283
REMARK  120  A    between atoms: _282  and  _285
REMARK  121  A    between atoms: _285  and  _286
REMARK  122  A    between atoms: _289  and  _291
REMARK  123  A    between atoms: _291  and  _292
REMARK  124  A    between atoms: _291  and  _294
REMARK  125  A    between atoms: _294  and  _295
REMARK  126  A    between atoms: _297  and  _299
REMARK  127  A    between atoms: _299  and  _300
REMARK  128  A    between atoms: _299  and  _302
REMARK  129  A    between atoms: _302  and  _303
REMARK  130  A    between atoms: _309  and  _311
REMARK  131  A    between atoms: _311  and  _312
REMARK  132  A    between atoms: _311  and  _314
REMARK  133  A    between atoms: _314  and  _315
REMARK  134  A    between atoms: _320  and  _321
REMARK  135  A    between atoms: _323  and  _325
REMARK  136  A    between atoms: _325  and  _326
REMARK  137  A    between atoms: _328  and  _330
REMARK  138  A    between atoms: _330  and  _331
REMARK  139  A    between atoms: _330  and  _333
REMARK  140  A    between atoms: _333  and  _334
REMARK  141  A    between atoms: _338  and  ZN_362
REMARK  142  A    between atoms: _339  and  _341
REMARK  143  A    between atoms: _341  and  _342
REMARK  144  A    between atoms: _341  and  _344
REMARK  145  A    between atoms: _344  and  _345
REMARK  146  A    between atoms: _348  and  _350
REMARK  147  A    between atoms: _350  and  _351
REMARK  148  A    between atoms: _350  and  _353
REMARK  149  A    between atoms: _353  and  _354
REMARK  150  A    between atoms: _359  and  _360
REMARK                            x       y       z     vdW  Elec       q    Type
REMARK                         _______ _______ _______ _____ _____    ______ ____
ROOT
ATOM      1  C   GLY A   1      13.957  54.970  63.953  0.00  0.00    +0.240 C 
ATOM      2  N   LEU A   2      12.743  54.514  64.259  0.00  0.00    -0.298 N 
ATOM      3  H   LEU A   2      12.420  54.624  65.241  0.00  0.00    +0.150 HD
ATOM      4  O   GLY A   1      14.415  54.958  62.824  0.00  0.00    -0.274 OA
ENDROOT
BRANCH   1   5
ATOM      5  CA  GLY A   1      14.772  55.539  65.109  0.00  0.00    +0.169 C 
BRANCH   5   6
ATOM      6  N   GLY A   1      13.942  55.997  66.229  0.00  0.00    -0.236 NA
ATOM      7  H   GLY A   1      13.720  55.330  66.995  0.00  0.00    +0.142 HD
ENDBRANCH   5   6
ENDBRANCH   1   5
BRANCH   2   8
ATOM      8  CA  LEU A   2      11.837  53.873  63.317  0.00  0.00    +0.137 C 
BRANCH   8   9
ATOM      9  C   LEU A   2      10.448  54.512  63.416  0.00  0.00    +0.227 C 
ATOM     10  O   LEU A   2       9.528  53.930  63.979  0.00  0.00    -0.286 OA
ENDBRANCH   8   9
BRANCH   8  11
ATOM     11  CB  LEU A   2      11.715  52.380  63.656  0.00  0.00    +0.028 C 
BRANCH  11  12
ATOM     12  CG  LEU A   2      13.016  51.587  63.619  0.00  0.00    +0.002 C 
ATOM     13  CD2 LEU A   2      12.893  50.306  64.483  0.00  0.00    +0.000 C 
ATOM     14  CD1 LEU A   2      13.451  51.247  62.166  0.00  0.00    +0.000 C 
ENDBRANCH  11  12
ENDBRANCH   8  11
ENDBRANCH   2   8
TORSDOF 6
REMARK  Name = ../refined-set-2016/2gkl/2gkl_pocket.pdb
REMARK  150 active torsions:
REMARK  status: ('A' for Active; 'I' for Inactive)
REMARK    1  A    between atoms: _1  and  _3
REMARK    2  A    between atoms: _3  and  _4
REMARK    3  A    between atoms: _3  and  _6
REMARK    4  A    between atoms: _6  and  _7
REMARK    5  A    between atoms: _12  and  _13
REMARK    6  A    between atoms: _15  and  _17
REMARK    7  A    between atoms: _17  and  _18
REMARK    8  A    between atoms: _17  and  _20
REMARK    9  A    between atoms: _23  and  _25
REMARK   10  A    between atoms: _25  and  _26
REMARK   11  A    between atoms: _25  and  _28
REMARK   12  A    between atoms: _28  and  _29
REMARK   13  A    between atoms: _29  and  _30
REMARK   14  A    between atoms: _35  and  _37
REMARK   15  A    between atoms: _37  and  _38
REMARK   16  A    between atoms: _37  and  _40
REMARK   17  A    between atoms: _40  and  _41
REMARK   18  A    between atoms: _41  and  _42
REMARK   19  A    between atoms: _45  and  _47
REMARK   20  A    between atoms: _47  and  _48
REMARK   21  A    between atoms: _47  and  _50
REMARK   22  A    between atoms: _50  and  _51
REMARK   23  A    between atoms: _56  and  _58
REMARK   24  A    between atoms: _58  and  _59
REMARK   25  A    between atoms: _58  and  _61
REMARK   26  A    between atoms: _61  and  _62
REMARK   27  A    between atoms: _72  and  _74
REMARK   28  A    between atoms: _74  and  _75
REMARK   29  A    between atoms: _74  and  _77
REMARK   30  A    between atoms: _77  and  _78
REMARK   31  A    between atoms: _83  and  _85
REMARK   32  A    between atoms: _85  and  _86
REMARK   33  A    between atoms: _85  and  _88
REMARK   34  A    between atoms: _88  and  _89
REMARK   35  A    between atoms: _94  and  _96
REMARK   36  A    between atoms: _96  and  _97
REMARK   37  A    between atoms: _96  and  _99
REMARK   38  A    between atoms: _99  and  _100
REMARK   39  A    between atoms: _103  and  _105
REMARK   40  A    between atoms: _105  and  _106
REMARK   41  A    between atoms: _105  and  _108
REMARK   42  A    between atoms: _108  and  _109
REMARK   43  A    between atoms: _109  and  _111
REMARK   44  A    between atoms: _111  and  ZN_362
REMARK   45  A    between atoms: _112  and  _114
REMARK   46  A    between atoms: _114  and  _115
REMARK   47  A    between atoms: _114  and  _117
REMARK   48  A    between atoms: _117  and  _118
REMARK   49  A    between atoms: _118  and  _119
REMARK   50  A    between atoms: _119  and  _120
REMARK   51  A    between atoms: _129  and  _131
REMARK   52  A    between atoms: _131  and  _132
REMARK   53  A    between atoms: _131  and  _134
REMARK   54  A    between atoms: _134  and  _135
REMARK   55  A    between atoms: _138  and  _140
REMARK   56  A    between atoms: _140  and  _141
REMARK   57  A    between atoms: _140  and  _143
REMARK   58  A    between atoms: _143  and  _144
REMARK   59  A    between atoms: _150  and  _152
REMARK   60  A    between atoms: _152  and  _153
REMARK   61  A    between atoms: _152  and  _155
REMARK   62  A    between atoms: _155  and  _156
REMARK   63  A    between atoms: _159  and  _161
REMARK   64  A    between atoms: _161  and  _162
REMARK   65  A    between atoms: _164  and  _166
REMARK   66  A    between atoms: _166  and  _167
REMARK   67  A    between atoms: _166  and  _169
REMARK   68  A    between atoms: _169  and  _170
REMARK   69  A    between atoms: _173  and  _175
REMARK   70  A    between atoms: _175  and  _176
REMARK   71  A    between atoms: _175  and  _178
REMARK   72  A    between atoms: _178  and  _179
REMARK   73  A    between atoms: _184  and  _186
REMARK   74  A    between atoms: _186  and  _187
REMARK   75  A    between atoms: _186  and  _189
REMARK   76  A    between atoms: _189  and  _190
REMARK   77  A    between atoms: _193  and  _195
REMARK   78  A    between atoms: _195  and  _196
REMARK   79  A    between atoms: _195  and  _198
REMARK   80  A    between atoms: _198  and  _199
REMARK   81  A    between atoms: _204  and  _206
REMARK   82  A    between atoms: _206  and  _207
REMARK   83  A    between atoms: _206  and  _209
REMARK   84  A    between atoms: _209  and  _210
REMARK   85  A    between atoms: _210  and  ZN_362
REMARK   86  A    between atoms: _211  and  _213
REMARK   87  A    between atoms: _213  and  _214
REMARK   88  A    between atoms: _213  and  _216
REMARK   89  A    between atoms: _216  and  _217
REMARK   90  A    between atoms: _220  and  _222
REMARK   91  A    between atoms: _222  and  _223
REMARK   92  A    between atoms: _222  and  _225
REMARK   93  A    between atoms: _225  and  _226
REMARK   94  A    between atoms: _229  and  _231
REMARK   95  A    between atoms: _231  and  _232
REMARK   96  A    between atoms: _231  and  _234
REMARK   97  A    between atoms: _234  and  _235
REMARK   98  A    between atoms: _235  and  _236
REMARK   99  A    between atoms: _236  and  _237
REMARK  100  A    between atoms: _237  and  _238
REMARK  101  A    between atoms: _242  and  _244
REMARK  102  A    between atoms: _244  and  _245
REMARK  103  A    between atoms: _244  and  _247
REMARK  104  A    between atoms: _247  and  _248
REMARK  105  A    between atoms: _248  and  _249
REMARK  106  A    between atoms: _249  and  _250
REMARK  107  A    between atoms: _250  and  _251
REMARK  108  A    between atoms: _255  and  _257
REMARK  109  A    between atoms: _257  and  _258
REMARK  110  A    between atoms: _257  and  _260
REMARK  111  A    between atoms: _260  and  _261
REMARK  112  A    between atoms: _264  and  _266
REMARK  113  A    between atoms: _266  and  _267
REMARK  114  A    between atoms: _269  and  _271
REMARK  115  A    between atoms: _271  and  _272
REMARK  116  A    between atoms: _271  and  _274
REMARK  117  A    between atoms: _274  and  _275
REMARK  118  A    between atoms: _280  and  _282
REMARK  119  A    between atoms: _282  and  _283
REMARK  120  A    between atoms: _282  and  _285
REMARK  121  A    between atoms: _285  and  _286
REMARK  122  A    between atoms: _289  and  _291
REMARK  123  A    between atoms: _291  and  _292
REMARK  124  A    between atoms: _291  and  _294
REMARK  125  A    between atoms: _294  and  _295
REMARK  126  A    between atoms: _297  and  _299
REMARK  127  A    between atoms: _299  and  _300
REMARK  128  A    between atoms: _299  and  _302
REMARK  129  A    between atoms: _302  and  _303
REMARK  130  A    between atoms: _309  and  _311
REMARK  131  A    between atoms: _311  and  _312
REMARK  132  A    between atoms: _311  and  _314
REMARK  133  A    between atoms: _314  and  _315
REMARK  134  A    between atoms: _320  and  _321
REMARK  135  A    between atoms: _323  and  _325
REMARK  136  A    between atoms: _325  and  _326
REMARK  137  A    between atoms: _328  and  _330
REMARK  138  A    between atoms: _330  and  _331
REMARK  139  A    between atoms: _330  and  _333
REMARK  140  A    between atoms: _333  and  _334
REMARK  141  A    between atoms: _338  and  ZN_362
REMARK  142  A    between atoms: _339  and  _341
REMARK  143  A    between atoms: _341  and  _342
REMARK  144  A    between atoms: _341  and  _344
REMARK  145  A    between atoms: _344  and  _345
REMARK  146  A    between atoms: _348  and  _350
REMARK  147  A    between atoms: _350  and  _351
REMARK  148  A    between atoms: _350  and  _353
REMARK  149  A    between atoms: _353  and  _354
REMARK  150  A    between atoms: _359  and  _360
REMARK                            x       y       z     vdW  Elec       q    Type
REMARK                         _______ _______ _______ _____ _____    ______ ____
ROOT
ATOM      1  C   HIS A   1      20.302  44.948  77.535  0.00  0.00    +0.239 C 
ATOM      2  N   THR A   2      19.531  44.228  78.346  0.00  0.00    -0.296 N 
ATOM      3  H   THR A   2      19.602  43.192  78.297  0.00  0.00    +0.150 HD
ATOM      4  O   HIS A   1      20.115  46.132  77.313  0.00  0.00    -0.274 OA
ENDROOT
BRANCH   1   5
ATOM      5  CA  HIS A   1      21.486  44.212  76.879  0.00  0.00    +0.151 C 
BRANCH   5   6
ATOM      6  N   HIS A   1      22.073  43.239  77.812  0.00  0.00    -0.238 NA
ATOM      7  H   HIS A   1      22.019  42.227  77.580  0.00  0.00    +0.142 HD
ENDBRANCH   5   6
BRANCH   5   8
ATOM      8  CB  HIS A   1      21.103  43.524  75.561  0.00  0.00    +0.074 C 
BRANCH   8   9
ATOM      9  CG  HIS A   1      20.074  44.258  74.760  0.00  0.00    +0.082 A 
ATOM     10  ND1 HIS A   1      18.723  44.013  74.896  0.00  0.00    -0.227 NA
ATOM     11  CE1 HIS A   1      18.053  44.795  74.059  0.00  0.00    +0.199 A 
ATOM     12  NE2 HIS A   1      18.918  45.554  73.405  0.00  0.00    -0.221 NA
ATOM     13  CD2 HIS A   1      20.193  45.216  73.807  0.00  0.00    +0.115 A 
ENDBRANCH   8   9
ENDBRANCH   5   8
ENDBRANCH   1   5
BRANCH   2  14
ATOM     14  CA  THR A   2      18.591  44.807  79.301  0.00  0.00    +0.164 C 
BRANCH  14  15
ATOM     15  C   THR A   2      18.795  44.112  80.661  0.00  0.00    +0.229 C 
ATOM     16  O   THR A   2      19.576  43.144  80.756  0.00  0.00    -0.286 OA
ENDBRANCH  14  15
BRANCH  14  17
ATOM     17  CB  THR A   2      17.143  44.592  78.851  0.00  0.00    +0.136 C 
ATOM     18  CG2 THR A   2      16.925  45.267  77.506  0.00  0.00    +0.034 C 
BRANCH  17  19
ATOM     19  OG1 THR A   2      16.881  43.184  78.758  0.00  0.00    -0.382 OA
ATOM     20  HG1 THR A   2      17.498  42.778  78.099  0.00  0.00    +0.210 HD
ENDBRANCH  17  19
ENDBRANCH  14  17
ENDBRANCH   2  14
TORSDOF 8
REMARK  Name = ../refined-set-2016/2gkl/2gkl_pocket.pdb
REMARK  150 active torsions:
REMARK  status: ('A' for Active; 'I' for Inactive)
REMARK    1  A    between atoms: _1  and  _3
REMARK    2  A    between atoms: _3  and  _4
REMARK    3  A    between atoms: _3  and  _6
REMARK    4  A    between atoms: _6  and  _7
REMARK    5  A    between atoms: _12  and  _13
REMARK    6  A    between atoms: _15  and  _17
REMARK    7  A    between atoms: _17  and  _18
REMARK    8  A    between atoms: _17  and  _20
REMARK    9  A    between atoms: _23  and  _25
REMARK   10  A    between atoms: _25  and  _26
REMARK   11  A    between atoms: _25  and  _28
REMARK   12  A    between atoms: _28  and  _29
REMARK   13  A    between atoms: _29  and  _30
REMARK   14  A    between atoms: _35  and  _37
REMARK   15  A    between atoms: _37  and  _38
REMARK   16  A    between atoms: _37  and  _40
REMARK   17  A    between atoms: _40  and  _41
REMARK   18  A    between atoms: _41  and  _42
REMARK   19  A    between atoms: _45  and  _47
REMARK   20  A    between atoms: _47  and  _48
REMARK   21  A    between atoms: _47  and  _50
REMARK   22  A    between atoms: _50  and  _51
REMARK   23  A    between atoms: _56  and  _58
REMARK   24  A    between atoms: _58  and  _59
REMARK   25  A    between atoms: _58  and  _61
REMARK   26  A    between atoms: _61  and  _62
REMARK   27  A    between atoms: _72  and  _74
REMARK   28  A    between atoms: _74  and  _75
REMARK   29  A    between atoms: _74  and  _77
REMARK   30  A    between atoms: _77  and  _78
REMARK   31  A    between atoms: _83  and  _85
REMARK   32  A    between atoms: _85  and  _86
REMARK   33  A    between atoms: _85  and  _88
REMARK   34  A    between atoms: _88  and  _89
REMARK   35  A    between atoms: _94  and  _96
REMARK   36  A    between atoms: _96  and  _97
REMARK   37  A    between atoms: _96  and  _99
REMARK   38  A    between atoms: _99  and  _100
REMARK   39  A    between atoms: _103  and  _105
REMARK   40  A    between atoms: _105  and  _106
REMARK   41  A    between atoms: _105  and  _108
REMARK   42  A    between atoms: _108  and  _109
REMARK   43  A    between atoms: _109  and  _111
REMARK   44  A    between atoms: _111  and  ZN_362
REMARK   45  A    between atoms: _112  and  _114
REMARK   46  A    between atoms: _114  and  _115
REMARK   47  A    between atoms: _114  and  _117
REMARK   48  A    between atoms: _117  and  _118
REMARK   49  A    between atoms: _118  and  _119
REMARK   50  A    between atoms: _119  and  _120
REMARK   51  A    between atoms: _129  and  _131
REMARK   52  A    between atoms: _131  and  _132
REMARK   53  A    between atoms: _131  and  _134
REMARK   54  A    between atoms: _134  and  _135
REMARK   55  A    between atoms: _138  and  _140
REMARK   56  A    between atoms: _140  and  _141
REMARK   57  A    between atoms: _140  and  _143
REMARK   58  A    between atoms: _143  and  _144
REMARK   59  A    between atoms: _150  and  _152
REMARK   60  A    between atoms: _152  and  _153
REMARK   61  A    between atoms: _152  and  _155
REMARK   62  A    between atoms: _155  and  _156
REMARK   63  A    between atoms: _159  and  _161
REMARK   64  A    between atoms: _161  and  _162
REMARK   65  A    between atoms: _164  and  _166
REMARK   66  A    between atoms: _166  and  _167
REMARK   67  A    between atoms: _166  and  _169
REMARK   68  A    between atoms: _169  and  _170
REMARK   69  A    between atoms: _173  and  _175
REMARK   70  A    between atoms: _175  and  _176
REMARK   71  A    between atoms: _175  and  _178
REMARK   72  A    between atoms: _178  and  _179
REMARK   73  A    between atoms: _184  and  _186
REMARK   74  A    between atoms: _186  and  _187
REMARK   75  A    between atoms: _186  and  _189
REMARK   76  A    between atoms: _189  and  _190
REMARK   77  A    between atoms: _193  and  _195
REMARK   78  A    between atoms: _195  and  _196
REMARK   79  A    between atoms: _195  and  _198
REMARK   80  A    between atoms: _198  and  _199
REMARK   81  A    between atoms: _204  and  _206
REMARK   82  A    between atoms: _206  and  _207
REMARK   83  A    between atoms: _206  and  _209
REMARK   84  A    between atoms: _209  and  _210
REMARK   85  A    between atoms: _210  and  ZN_362
REMARK   86  A    between atoms: _211  and  _213
REMARK   87  A    between atoms: _213  and  _214
REMARK   88  A    between atoms: _213  and  _216
REMARK   89  A    between atoms: _216  and  _217
REMARK   90  A    between atoms: _220  and  _222
REMARK   91  A    between atoms: _222  and  _223
REMARK   92  A    between atoms: _222  and  _225
REMARK   93  A    between atoms: _225  and  _226
REMARK   94  A    between atoms: _229  and  _231
REMARK   95  A    between atoms: _231  and  _232
REMARK   96  A    between atoms: _231  and  _234
REMARK   97  A    between atoms: _234  and  _235
REMARK   98  A    between atoms: _235  and  _236
REMARK   99  A    between atoms: _236  and  _237
REMARK  100  A    between atoms: _237  and  _238
REMARK  101  A    between atoms: _242  and  _244
REMARK  102  A    between atoms: _244  and  _245
REMARK  103  A    between atoms: _244  and  _247
REMARK  104  A    between atoms: _247  and  _248
REMARK  105  A    between atoms: _248  and  _249
REMARK  106  A    between atoms: _249  and  _250
REMARK  107  A    between atoms: _250  and  _251
REMARK  108  A    between atoms: _255  and  _257
REMARK  109  A    between atoms: _257  and  _258
REMARK  110  A    between atoms: _257  and  _260
REMARK  111  A    between atoms: _260  and  _261
REMARK  112  A    between atoms: _264  and  _266
REMARK  113  A    between atoms: _266  and  _267
REMARK  114  A    between atoms: _269  and  _271
REMARK  115  A    between atoms: _271  and  _272
REMARK  116  A    between atoms: _271  and  _274
REMARK  117  A    between atoms: _274  and  _275
REMARK  118  A    between atoms: _280  and  _282
REMARK  119  A    between atoms: _282  and  _283
REMARK  120  A    between atoms: _282  and  _285
REMARK  121  A    between atoms: _285  and  _286
REMARK  122  A    between atoms: _289  and  _291
REMARK  123  A    between atoms: _291  and  _292
REMARK  124  A    between atoms: _291  and  _294
REMARK  125  A    between atoms: _294  and  _295
REMARK  126  A    between atoms: _297  and  _299
REMARK  127  A    between atoms: _299  and  _300
REMARK  128  A    between atoms: _299  and  _302
REMARK  129  A    between atoms: _302  and  _303
REMARK  130  A    between atoms: _309  and  _311
REMARK  131  A    between atoms: _311  and  _312
REMARK  132  A    between atoms: _311  and  _314
REMARK  133  A    between atoms: _314  and  _315
REMARK  134  A    between atoms: _320  and  _321
REMARK  135  A    between atoms: _323  and  _325
REMARK  136  A    between atoms: _325  and  _326
REMARK  137  A    between atoms: _328  and  _330
REMARK  138  A    between atoms: _330  and  _331
REMARK  139  A    between atoms: _330  and  _333
REMARK  140  A    between atoms: _333  and  _334
REMARK  141  A    between atoms: _338  and  ZN_362
REMARK  142  A    between atoms: _339  and  _341
REMARK  143  A    between atoms: _341  and  _342
REMARK  144  A    between atoms: _341  and  _344
REMARK  145  A    between atoms: _344  and  _345
REMARK  146  A    between atoms: _348  and  _350
REMARK  147  A    between atoms: _350  and  _351
REMARK  148  A    between atoms: _350  and  _353
REMARK  149  A    between atoms: _353  and  _354
REMARK  150  A    between atoms: _359  and  _360
REMARK                            x       y       z     vdW  Elec       q    Type
REMARK                         _______ _______ _______ _____ _____    ______ ____
ROOT
ATOM      1  CA  ASN A   4      21.902  49.274  71.023  0.00  0.00    +0.158 C 
ENDROOT
BRANCH   1   2
ATOM      2  C   ASN A   4      22.231  49.046  72.504  0.00  0.00    +0.241 C 
ATOM      3  N   LEU A   5      22.897  50.029  73.121  0.00  0.00    -0.297 N 
ATOM      4  H   LEU A   5      23.091  50.907  72.598  0.00  0.00    +0.150 HD
ATOM      5  O   ASN A   4      21.872  48.008  73.066  0.00  0.00    -0.273 OA
BRANCH   3   6
ATOM      6  CA  LEU A   5      23.367  49.915  74.516  0.00  0.00    +0.149 C 
BRANCH   6   7
ATOM      7  C   LEU A   5      22.644  50.857  75.485  0.00  0.00    +0.241 C 
ATOM      8  O   LEU A   5      22.988  50.904  76.676  0.00  0.00    -0.273 OA
ATOM      9  N   SER A   6      21.602  51.539  75.001  0.00  0.00    -0.295 N 
ATOM     10  H   SER A   6      21.312  51.381  74.015  0.00  0.00    +0.150 HD
BRANCH   9  11
ATOM     11  CA  SER A   6      20.852  52.505  75.817  0.00  0.00    +0.178 C 
BRANCH  11  12
ATOM     12  C   SER A   6      20.263  51.931  77.106  0.00  0.00    +0.243 C 
ATOM     13  O   SER A   6      20.087  52.667  78.102  0.00  0.00    -0.273 OA
ATOM     14  N   PHE A   7      19.963  50.635  77.105  0.00  0.00    -0.298 N 
ATOM     15  H   PHE A   7      20.160  50.067  76.257  0.00  0.00    +0.150 HD
BRANCH  14  16
ATOM     16  CA  PHE A   7      19.358  49.990  78.280  0.00  0.00    +0.141 C 
BRANCH  16  17
ATOM     17  C   PHE A   7      20.307  48.995  78.961  0.00  0.00    +0.227 C 
ATOM     18  O   PHE A   7      19.924  48.317  79.920  0.00  0.00    -0.286 OA
ENDBRANCH  16  17
BRANCH  16  19
ATOM     19  CB  PHE A   7      18.055  49.283  77.883  0.00  0.00    +0.054 C 
BRANCH  19  20
ATOM     20  CG  PHE A   7      17.063  50.191  77.218  0.00  0.00    -0.020 A 
ATOM     21  CD2 PHE A   7      16.142  50.891  77.955  0.00  0.00    -0.004 A 
ATOM     22  CE2 PHE A   7      15.240  51.764  77.316  0.00  0.00    -0.000 A 
ATOM     23  CZ  PHE A   7      15.292  51.914  75.950  0.00  0.00    -0.000 A 
ATOM     24  CE1 PHE A   7      16.231  51.219  75.209  0.00  0.00    -0.000 A 
ATOM     25  CD1 PHE A   7      17.115  50.387  75.841  0.00  0.00    -0.004 A 
ENDBRANCH  19  20
ENDBRANCH  16  19
ENDBRANCH  14  16
ENDBRANCH  11  12
BRANCH  11  26
ATOM     26  CB  SER A   6      19.718  53.136  75.004  0.00  0.00    +0.166 C 
BRANCH  26  27
ATOM     27  OG  SER A   6      20.231  53.646  73.785  0.00  0.00    -0.380 OA
ATOM     28  H   SER A   6      20.637  52.908  73.265  0.00  0.00    +0.211 HD
ENDBRANCH  26  27
ENDBRANCH  11  26
ENDBRANCH   9  11
ENDBRANCH   6   7
BRANCH   6  29
ATOM     29  CB  LEU A   5      24.887  50.130  74.605  0.00  0.00    +0.029 C 
BRANCH  29  30
ATOM     30  CG  LEU A   5      25.764  49.166  73.773  0.00  0.00    +0.002 C 
ATOM     31  CD2 LEU A   5      25.531  47.726  74.199  0.00  0.00    +0.000 C 
ATOM     32  CD1 LEU A   5      27.261  49.521  73.853  0.00  0.00    +0.000 C 
ENDBRANCH  29  30
ENDBRANCH   6  29
ENDBRANCH   3   6
ENDBRANCH   1   2
BRANCH   1  34
ATOM     33  C   GLY A   3      23.547  48.220  69.625  0.00  0.00    +0.243 C 
ATOM     34  N   ASN A   4      22.339  48.193  70.161  0.00  0.00    -0.297 N 
ATOM     35  H   ASN A   4      21.701  47.395  69.964  0.00  0.00    +0.150 HD
ATOM     36  O   GLY A   3      24.386  49.069  69.932  0.00  0.00    -0.273 OA
BRANCH  33  37
ATOM     37  CA  GLY A   3      23.878  47.108  68.652  0.00  0.00    +0.176 C 
BRANCH  37  40
ATOM     38  C   LEU A   2      25.989  46.285  69.532  0.00  0.00    +0.241 C 
ATOM     39  O   LEU A   2      25.455  45.886  70.566  0.00  0.00    -0.273 OA
ATOM     40  N   GLY A   3      25.310  46.872  68.553  0.00  0.00    -0.295 N 
ATOM     41  H   GLY A   3      25.815  47.170  67.694  0.00  0.00    +0.150 HD
BRANCH  38  42
ATOM     42  CA  LEU A   2      27.484  46.106  69.296  0.00  0.00    +0.149 C 
BRANCH  42  44
ATOM     43  C   LYS A   1      27.109  44.358  67.365  0.00  0.00    +0.238 C 
ATOM     44  N   LEU A   2      27.737  45.640  67.937  0.00  0.00    -0.297 N 
ATOM     45  H   LEU A   2      28.369  46.199  67.329  0.00  0.00    +0.150 HD
ATOM     46  O   LYS A   1      26.088  43.938  67.935  0.00  0.00    -0.274 OA
BRANCH  43  47
ATOM     47  CA  LYS A   1      27.416  44.030  65.914  0.00  0.00    +0.145 C 
BRANCH  47  48
ATOM     48  N   LYS A   1      27.070  42.662  65.669  0.00  0.00    -0.238 NA
ATOM     49  H   LYS A   1      26.096  42.419  65.398  0.00  0.00    +0.142 HD
ENDBRANCH  47  48
BRANCH  47  50
ATOM     50  CB  LYS A   1      26.659  44.940  64.945  0.00  0.00    +0.026 C 
BRANCH  50  51
ATOM     51  CG  LYS A   1      27.204  44.830  63.520  0.00  0.00    -0.000 C 
BRANCH  51  52
ATOM     52  CD  LYS A   1      26.705  45.967  62.620  0.00  0.00    -0.024 C 
BRANCH  52  53
ATOM     53  CE  LYS A   1      25.348  45.661  62.028  0.00  0.00    -0.086 C 
BRANCH  53  54
ATOM     54  NZ  LYS A   1      24.744  46.861  61.314  0.00  0.00    +0.380 N 
ATOM     55  HZ1 LYS A   1      24.632  47.644  61.989  0.00  0.00    -0.089 HD
ATOM     56  HZ2 LYS A   1      23.815  46.600  60.926  0.00  0.00    -0.089 HD
ATOM     57  HZ3 LYS A   1      25.374  47.156  60.541  0.00  0.00    -0.089 HD
ENDBRANCH  53  54
ENDBRANCH  52  53
ENDBRANCH  51  52
ENDBRANCH  50  51
ENDBRANCH  47  50
ENDBRANCH  43  47
ENDBRANCH  42  44
BRANCH  42  58
ATOM     58  CB  LEU A   2      28.218  47.419  69.502  0.00  0.00    +0.029 C 
BRANCH  58  59
ATOM     59  CG  LEU A   2      28.715  47.750  70.894  0.00  0.00    +0.002 C 
ATOM     60  CD2 LEU A   2      29.230  46.512  71.636  0.00  0.00    +0.000 C 
ATOM     61  CD1 LEU A   2      29.796  48.852  70.785  0.00  0.00    +0.000 C 
ENDBRANCH  58  59
ENDBRANCH  42  58
ENDBRANCH  38  42
ENDBRANCH  37  40
ENDBRANCH  33  37
ENDBRANCH   1  34
BRANCH   1  62
ATOM     62  CB  ASN A   4      20.428  49.539  70.822  0.00  0.00    +0.114 C 
BRANCH  62  63
ATOM     63  CG  ASN A   4      20.022  50.842  71.395  0.00  0.00    +0.222 C 
ATOM     64  OD1 ASN A   4      19.787  50.949  72.592  0.00  0.00    -0.275 OA
ATOM     65  ND2 ASN A   4      19.949  51.865  70.547  0.00  0.00    -0.329 N 
ATOM     66 HD21 ASN A   4      19.682  52.809  70.893  0.00  0.00    +0.145 HD
ATOM     67 HD22 ASN A   4      20.159  51.721  69.539  0.00  0.00    +0.145 HD
ENDBRANCH  62  63
ENDBRANCH   1  62
TORSDOF 29
REMARK  Name = ../refined-set-2016/2gkl/2gkl_pocket.pdb
REMARK  150 active torsions:
REMARK  status: ('A' for Active; 'I' for Inactive)
REMARK    1  A    between atoms: _1  and  _3
REMARK    2  A    between atoms: _3  and  _4
REMARK    3  A    between atoms: _3  and  _6
REMARK    4  A    between atoms: _6  and  _7
REMARK    5  A    between atoms: _12  and  _13
REMARK    6  A    between atoms: _15  and  _17
REMARK    7  A    between atoms: _17  and  _18
REMARK    8  A    between atoms: _17  and  _20
REMARK    9  A    between atoms: _23  and  _25
REMARK   10  A    between atoms: _25  and  _26
REMARK   11  A    between atoms: _25  and  _28
REMARK   12  A    between atoms: _28  and  _29
REMARK   13  A    between atoms: _29  and  _30
REMARK   14  A    between atoms: _35  and  _37
REMARK   15  A    between atoms: _37  and  _38
REMARK   16  A    between atoms: _37  and  _40
REMARK   17  A    between atoms: _40  and  _41
REMARK   18  A    between atoms: _41  and  _42
REMARK   19  A    between atoms: _45  and  _47
REMARK   20  A    between atoms: _47  and  _48
REMARK   21  A    between atoms: _47  and  _50
REMARK   22  A    between atoms: _50  and  _51
REMARK   23  A    between atoms: _56  and  _58
REMARK   24  A    between atoms: _58  and  _59
REMARK   25  A    between atoms: _58  and  _61
REMARK   26  A    between atoms: _61  and  _62
REMARK   27  A    between atoms: _72  and  _74
REMARK   28  A    between atoms: _74  and  _75
REMARK   29  A    between atoms: _74  and  _77
REMARK   30  A    between atoms: _77  and  _78
REMARK   31  A    between atoms: _83  and  _85
REMARK   32  A    between atoms: _85  and  _86
REMARK   33  A    between atoms: _85  and  _88
REMARK   34  A    between atoms: _88  and  _89
REMARK   35  A    between atoms: _94  and  _96
REMARK   36  A    between atoms: _96  and  _97
REMARK   37  A    between atoms: _96  and  _99
REMARK   38  A    between atoms: _99  and  _100
REMARK   39  A    between atoms: _103  and  _105
REMARK   40  A    between atoms: _105  and  _106
REMARK   41  A    between atoms: _105  and  _108
REMARK   42  A    between atoms: _108  and  _109
REMARK   43  A    between atoms: _109  and  _111
REMARK   44  A    between atoms: _111  and  ZN_362
REMARK   45  A    between atoms: _112  and  _114
REMARK   46  A    between atoms: _114  and  _115
REMARK   47  A    between atoms: _114  and  _117
REMARK   48  A    between atoms: _117  and  _118
REMARK   49  A    between atoms: _118  and  _119
REMARK   50  A    between atoms: _119  and  _120
REMARK   51  A    between atoms: _129  and  _131
REMARK   52  A    between atoms: _131  and  _132
REMARK   53  A    between atoms: _131  and  _134
REMARK   54  A    between atoms: _134  and  _135
REMARK   55  A    between atoms: _138  and  _140
REMARK   56  A    between atoms: _140  and  _141
REMARK   57  A    between atoms: _140  and  _143
REMARK   58  A    between atoms: _143  and  _144
REMARK   59  A    between atoms: _150  and  _152
REMARK   60  A    between atoms: _152  and  _153
REMARK   61  A    between atoms: _152  and  _155
REMARK   62  A    between atoms: _155  and  _156
REMARK   63  A    between atoms: _159  and  _161
REMARK   64  A    between atoms: _161  and  _162
REMARK   65  A    between atoms: _164  and  _166
REMARK   66  A    between atoms: _166  and  _167
REMARK   67  A    between atoms: _166  and  _169
REMARK   68  A    between atoms: _169  and  _170
REMARK   69  A    between atoms: _173  and  _175
REMARK   70  A    between atoms: _175  and  _176
REMARK   71  A    between atoms: _175  and  _178
REMARK   72  A    between atoms: _178  and  _179
REMARK   73  A    between atoms: _184  and  _186
REMARK   74  A    between atoms: _186  and  _187
REMARK   75  A    between atoms: _186  and  _189
REMARK   76  A    between atoms: _189  and  _190
REMARK   77  A    between atoms: _193  and  _195
REMARK   78  A    between atoms: _195  and  _196
REMARK   79  A    between atoms: _195  and  _198
REMARK   80  A    between atoms: _198  and  _199
REMARK   81  A    between atoms: _204  and  _206
REMARK   82  A    between atoms: _206  and  _207
REMARK   83  A    between atoms: _206  and  _209
REMARK   84  A    between atoms: _209  and  _210
REMARK   85  A    between atoms: _210  and  ZN_362
REMARK   86  A    between atoms: _211  and  _213
REMARK   87  A    between atoms: _213  and  _214
REMARK   88  A    between atoms: _213  and  _216
REMARK   89  A    between atoms: _216  and  _217
REMARK   90  A    between atoms: _220  and  _222
REMARK   91  A    between atoms: _222  and  _223
REMARK   92  A    between atoms: _222  and  _225
REMARK   93  A    between atoms: _225  and  _226
REMARK   94  A    between atoms: _229  and  _231
REMARK   95  A    between atoms: _231  and  _232
REMARK   96  A    between atoms: _231  and  _234
REMARK   97  A    between atoms: _234  and  _235
REMARK   98  A    between atoms: _235  and  _236
REMARK   99  A    between atoms: _236  and  _237
REMARK  100  A    between atoms: _237  and  _238
REMARK  101  A    between atoms: _242  and  _244
REMARK  102  A    between atoms: _244  and  _245
REMARK  103  A    between atoms: _244  and  _247
REMARK  104  A    between atoms: _247  and  _248
REMARK  105  A    between atoms: _248  and  _249
REMARK  106  A    between atoms: _249  and  _250
REMARK  107  A    between atoms: _250  and  _251
REMARK  108  A    between atoms: _255  and  _257
REMARK  109  A    between atoms: _257  and  _258
REMARK  110  A    between atoms: _257  and  _260
REMARK  111  A    between atoms: _260  and  _261
REMARK  112  A    between atoms: _264  and  _266
REMARK  113  A    between atoms: _266  and  _267
REMARK  114  A    between atoms: _269  and  _271
REMARK  115  A    between atoms: _271  and  _272
REMARK  116  A    between atoms: _271  and  _274
REMARK  117  A    between atoms: _274  and  _275
REMARK  118  A    between atoms: _280  and  _282
REMARK  119  A    between atoms: _282  and  _283
REMARK  120  A    between atoms: _282  and  _285
REMARK  121  A    between atoms: _285  and  _286
REMARK  122  A    between atoms: _289  and  _291
REMARK  123  A    between atoms: _291  and  _292
REMARK  124  A    between atoms: _291  and  _294
REMARK  125  A    between atoms: _294  and  _295
REMARK  126  A    between atoms: _297  and  _299
REMARK  127  A    between atoms: _299  and  _300
REMARK  128  A    between atoms: _299  and  _302
REMARK  129  A    between atoms: _302  and  _303
REMARK  130  A    between atoms: _309  and  _311
REMARK  131  A    between atoms: _311  and  _312
REMARK  132  A    between atoms: _311  and  _314
REMARK  133  A    between atoms: _314  and  _315
REMARK  134  A    between atoms: _320  and  _321
REMARK  135  A    between atoms: _323  and  _325
REMARK  136  A    between atoms: _325  and  _326
REMARK  137  A    between atoms: _328  and  _330
REMARK  138  A    between atoms: _330  and  _331
REMARK  139  A    between atoms: _330  and  _333
REMARK  140  A    between atoms: _333  and  _334
REMARK  141  A    between atoms: _338  and  ZN_362
REMARK  142  A    between atoms: _339  and  _341
REMARK  143  A    between atoms: _341  and  _342
REMARK  144  A    between atoms: _341  and  _344
REMARK  145  A    between atoms: _344  and  _345
REMARK  146  A    between atoms: _348  and  _350
REMARK  147  A    between atoms: _350  and  _351
REMARK  148  A    between atoms: _350  and  _353
REMARK  149  A    between atoms: _353  and  _354
REMARK  150  A    between atoms: _359  and  _360
REMARK                            x       y       z     vdW  Elec       q    Type
REMARK                         _______ _______ _______ _____ _____    ______ ____
ROOT
ATOM      1  CG  TYR A   1      26.595  42.917  77.944  0.00  0.00    -0.020 A 
ATOM      2  CD2 TYR A   1      25.746  43.878  77.405  0.00  0.00    -0.001 A 
ATOM      3  CE2 TYR A   1      24.955  43.610  76.280  0.00  0.00    +0.036 A 
ATOM      4  CZ  TYR A   1      25.049  42.364  75.663  0.00  0.00    +0.134 A 
ATOM      5  CE1 TYR A   1      25.909  41.402  76.180  0.00  0.00    +0.036 A 
ATOM      6  CD1 TYR A   1      26.681  41.687  77.311  0.00  0.00    -0.001 A 
ENDROOT
BRANCH   4   7
ATOM      7  OH  TYR A   1      24.270  42.060  74.550  0.00  0.00    -0.506 OA
ATOM      8  HH  TYR A   1      24.470  41.138  74.250  0.00  0.00    +0.292 HD
ENDBRANCH   4   7
BRANCH   1   9
ATOM      9  CB  TYR A   1      27.469  43.253  79.154  0.00  0.00    +0.051 C 
BRANCH   9  10
ATOM     10  CA  TYR A   1      27.358  42.321  80.351  0.00  0.00    +0.137 C 
BRANCH  10  11
ATOM     11  N   TYR A   1      27.568  43.116  81.576  0.00  0.00    -0.239 NA
ATOM     12  H   TYR A   1      27.609  44.152  81.501  0.00  0.00    +0.142 HD
ENDBRANCH  10  11
BRANCH  10  13
ATOM     13  C   TYR A   1      28.374  41.154  80.242  0.00  0.00    +0.224 C 
ATOM     14  O   TYR A   1      27.985  39.994  80.079  0.00  0.00    -0.287 OA
ENDBRANCH  10  13
ENDBRANCH   9  10
ENDBRANCH   1   9
TORSDOF 5
REMARK  Name = ../refined-set-2016/2gkl/2gkl_pocket.pdb
REMARK  150 active torsions:
REMARK  status: ('A' for Active; 'I' for Inactive)
REMARK    1  A    between atoms: _1  and  _3
REMARK    2  A    between atoms: _3  and  _4
REMARK    3  A    between atoms: _3  and  _6
REMARK    4  A    between atoms: _6  and  _7
REMARK    5  A    between atoms: _12  and  _13
REMARK    6  A    between atoms: _15  and  _17
REMARK    7  A    between atoms: _17  and  _18
REMARK    8  A    between atoms: _17  and  _20
REMARK    9  A    between atoms: _23  and  _25
REMARK   10  A    between atoms: _25  and  _26
REMARK   11  A    between atoms: _25  and  _28
REMARK   12  A    between atoms: _28  and  _29
REMARK   13  A    between atoms: _29  and  _30
REMARK   14  A    between atoms: _35  and  _37
REMARK   15  A    between atoms: _37  and  _38
REMARK   16  A    between atoms: _37  and  _40
REMARK   17  A    between atoms: _40  and  _41
REMARK   18  A    between atoms: _41  and  _42
REMARK   19  A    between atoms: _45  and  _47
REMARK   20  A    between atoms: _47  and  _48
REMARK   21  A    between atoms: _47  and  _50
REMARK   22  A    between atoms: _50  and  _51
REMARK   23  A    between atoms: _56  and  _58
REMARK   24  A    between atoms: _58  and  _59
REMARK   25  A    between atoms: _58  and  _61
REMARK   26  A    between atoms: _61  and  _62
REMARK   27  A    between atoms: _72  and  _74
REMARK   28  A    between atoms: _74  and  _75
REMARK   29  A    between atoms: _74  and  _77
REMARK   30  A    between atoms: _77  and  _78
REMARK   31  A    between atoms: _83  and  _85
REMARK   32  A    between atoms: _85  and  _86
REMARK   33  A    between atoms: _85  and  _88
REMARK   34  A    between atoms: _88  and  _89
REMARK   35  A    between atoms: _94  and  _96
REMARK   36  A    between atoms: _96  and  _97
REMARK   37  A    between atoms: _96  and  _99
REMARK   38  A    between atoms: _99  and  _100
REMARK   39  A    between atoms: _103  and  _105
REMARK   40  A    between atoms: _105  and  _106
REMARK   41  A    between atoms: _105  and  _108
REMARK   42  A    between atoms: _108  and  _109
REMARK   43  A    between atoms: _109  and  _111
REMARK   44  A    between atoms: _111  and  ZN_362
REMARK   45  A    between atoms: _112  and  _114
REMARK   46  A    between atoms: _114  and  _115
REMARK   47  A    between atoms: _114  and  _117
REMARK   48  A    between atoms: _117  and  _118
REMARK   49  A    between atoms: _118  and  _119
REMARK   50  A    between atoms: _119  and  _120
REMARK   51  A    between atoms: _129  and  _131
REMARK   52  A    between atoms: _131  and  _132
REMARK   53  A    between atoms: _131  and  _134
REMARK   54  A    between atoms: _134  and  _135
REMARK   55  A    between atoms: _138  and  _140
REMARK   56  A    between atoms: _140  and  _141
REMARK   57  A    between atoms: _140  and  _143
REMARK   58  A    between atoms: _143  and  _144
REMARK   59  A    between atoms: _150  and  _152
REMARK   60  A    between atoms: _152  and  _153
REMARK   61  A    between atoms: _152  and  _155
REMARK   62  A    between atoms: _155  and  _156
REMARK   63  A    between atoms: _159  and  _161
REMARK   64  A    between atoms: _161  and  _162
REMARK   65  A    between atoms: _164  and  _166
REMARK   66  A    between atoms: _166  and  _167
REMARK   67  A    between atoms: _166  and  _169
REMARK   68  A    between atoms: _169  and  _170
REMARK   69  A    between atoms: _173  and  _175
REMARK   70  A    between atoms: _175  and  _176
REMARK   71  A    between atoms: _175  and  _178
REMARK   72  A    between atoms: _178  and  _179
REMARK   73  A    between atoms: _184  and  _186
REMARK   74  A    between atoms: _186  and  _187
REMARK   75  A    between atoms: _186  and  _189
REMARK   76  A    between atoms: _189  and  _190
REMARK   77  A    between atoms: _193  and  _195
REMARK   78  A    between atoms: _195  and  _196
REMARK   79  A    between atoms: _195  and  _198
REMARK   80  A    between atoms: _198  and  _199
REMARK   81  A    between atoms: _204  and  _206
REMARK   82  A    between atoms: _206  and  _207
REMARK   83  A    between atoms: _206  and  _209
REMARK   84  A    between atoms: _209  and  _210
REMARK   85  A    between atoms: _210  and  ZN_362
REMARK   86  A    between atoms: _211  and  _213
REMARK   87  A    between atoms: _213  and  _214
REMARK   88  A    between atoms: _213  and  _216
REMARK   89  A    between atoms: _216  and  _217
REMARK   90  A    between atoms: _220  and  _222
REMARK   91  A    between atoms: _222  and  _223
REMARK   92  A    between atoms: _222  and  _225
REMARK   93  A    between atoms: _225  and  _226
REMARK   94  A    between atoms: _229  and  _231
REMARK   95  A    between atoms: _231  and  _232
REMARK   96  A    between atoms: _231  and  _234
REMARK   97  A    between atoms: _234  and  _235
REMARK   98  A    between atoms: _235  and  _236
REMARK   99  A    between atoms: _236  and  _237
REMARK  100  A    between atoms: _237  and  _238
REMARK  101  A    between atoms: _242  and  _244
REMARK  102  A    between atoms: _244  and  _245
REMARK  103  A    between atoms: _244  and  _247
REMARK  104  A    between atoms: _247  and  _248
REMARK  105  A    between atoms: _248  and  _249
REMARK  106  A    between atoms: _249  and  _250
REMARK  107  A    between atoms: _250  and  _251
REMARK  108  A    between atoms: _255  and  _257
REMARK  109  A    between atoms: _257  and  _258
REMARK  110  A    between atoms: _257  and  _260
REMARK  111  A    between atoms: _260  and  _261
REMARK  112  A    between atoms: _264  and  _266
REMARK  113  A    between atoms: _266  and  _267
REMARK  114  A    between atoms: _269  and  _271
REMARK  115  A    between atoms: _271  and  _272
REMARK  116  A    between atoms: _271  and  _274
REMARK  117  A    between atoms: _274  and  _275
REMARK  118  A    between atoms: _280  and  _282
REMARK  119  A    between atoms: _282  and  _283
REMARK  120  A    between atoms: _282  and  _285
REMARK  121  A    between atoms: _285  and  _286
REMARK  122  A    between atoms: _289  and  _291
REMARK  123  A    between atoms: _291  and  _292
REMARK  124  A    between atoms: _291  and  _294
REMARK  125  A    between atoms: _294  and  _295
REMARK  126  A    between atoms: _297  and  _299
REMARK  127  A    between atoms: _299  and  _300
REMARK  128  A    between atoms: _299  and  _302
REMARK  129  A    between atoms: _302  and  _303
REMARK  130  A    between atoms: _309  and  _311
REMARK  131  A    between atoms: _311  and  _312
REMARK  132  A    between atoms: _311  and  _314
REMARK  133  A    between atoms: _314  and  _315
REMARK  134  A    between atoms: _320  and  _321
REMARK  135  A    between atoms: _323  and  _325
REMARK  136  A    between atoms: _325  and  _326
REMARK  137  A    between atoms: _328  and  _330
REMARK  138  A    between atoms: _330  and  _331
REMARK  139  A    between atoms: _330  and  _333
REMARK  140  A    between atoms: _333  and  _334
REMARK  141  A    between atoms: _338  and  ZN_362
REMARK  142  A    between atoms: _339  and  _341
REMARK  143  A    between atoms: _341  and  _342
REMARK  144  A    between atoms: _341  and  _344
REMARK  145  A    between atoms: _344  and  _345
REMARK  146  A    between atoms: _348  and  _350
REMARK  147  A    between atoms: _350  and  _351
REMARK  148  A    between atoms: _350  and  _353
REMARK  149  A    between atoms: _353  and  _354
REMARK  150  A    between atoms: _359  and  _360
REMARK                            x       y       z     vdW  Elec       q    Type
REMARK                         _______ _______ _______ _____ _____    ______ ____
ROOT
ATOM      1  CG  TYR A   1      28.082  40.860  72.019  0.00  0.00    -0.020 A 
ATOM      2  CD2 TYR A   1      27.968  41.449  73.272  0.00  0.00    -0.001 A 
ATOM      3  CE2 TYR A   1      27.357  42.680  73.437  0.00  0.00    +0.036 A 
ATOM      4  CZ  TYR A   1      26.872  43.364  72.340  0.00  0.00    +0.134 A 
ATOM      5  CE1 TYR A   1      26.974  42.796  71.074  0.00  0.00    +0.036 A 
ATOM      6  CD1 TYR A   1      27.589  41.563  70.924  0.00  0.00    -0.001 A 
ENDROOT
BRANCH   4   7
ATOM      7  OH  TYR A   1      26.270  44.604  72.511  0.00  0.00    -0.506 OA
ATOM      8  HH  TYR A   1      25.332  44.560  72.197  0.00  0.00    +0.292 HD
ENDBRANCH   4   7
BRANCH   1   9
ATOM      9  CB  TYR A   1      28.786  39.522  71.840  0.00  0.00    +0.051 C 
BRANCH   9  10
ATOM     10  CA  TYR A   1      30.290  39.761  71.613  0.00  0.00    +0.137 C 
BRANCH  10  11
ATOM     11  N   TYR A   1      30.966  38.619  71.018  0.00  0.00    -0.239 NA
ATOM     12  H   TYR A   1      30.501  37.690  70.975  0.00  0.00    +0.142 HD
ENDBRANCH  10  11
BRANCH  10  13
ATOM     13  C   TYR A   1      30.953  40.218  72.909  0.00  0.00    +0.224 C 
ATOM     14  O   TYR A   1      31.045  41.435  73.180  0.00  0.00    -0.287 OA
ENDBRANCH  10  13
ENDBRANCH   9  10
ENDBRANCH   1   9
TORSDOF 5
REMARK  Name = ../refined-set-2016/2gkl/2gkl_pocket.pdb
REMARK  150 active torsions:
REMARK  status: ('A' for Active; 'I' for Inactive)
REMARK    1  A    between atoms: _1  and  _3
REMARK    2  A    between atoms: _3  and  _4
REMARK    3  A    between atoms: _3  and  _6
REMARK    4  A    between atoms: _6  and  _7
REMARK    5  A    between atoms: _12  and  _13
REMARK    6  A    between atoms: _15  and  _17
REMARK    7  A    between atoms: _17  and  _18
REMARK    8  A    between atoms: _17  and  _20
REMARK    9  A    between atoms: _23  and  _25
REMARK   10  A    between atoms: _25  and  _26
REMARK   11  A    between atoms: _25  and  _28
REMARK   12  A    between atoms: _28  and  _29
REMARK   13  A    between atoms: _29  and  _30
REMARK   14  A    between atoms: _35  and  _37
REMARK   15  A    between atoms: _37  and  _38
REMARK   16  A    between atoms: _37  and  _40
REMARK   17  A    between atoms: _40  and  _41
REMARK   18  A    between atoms: _41  and  _42
REMARK   19  A    between atoms: _45  and  _47
REMARK   20  A    between atoms: _47  and  _48
REMARK   21  A    between atoms: _47  and  _50
REMARK   22  A    between atoms: _50  and  _51
REMARK   23  A    between atoms: _56  and  _58
REMARK   24  A    between atoms: _58  and  _59
REMARK   25  A    between atoms: _58  and  _61
REMARK   26  A    between atoms: _61  and  _62
REMARK   27  A    between atoms: _72  and  _74
REMARK   28  A    between atoms: _74  and  _75
REMARK   29  A    between atoms: _74  and  _77
REMARK   30  A    between atoms: _77  and  _78
REMARK   31  A    between atoms: _83  and  _85
REMARK   32  A    between atoms: _85  and  _86
REMARK   33  A    between atoms: _85  and  _88
REMARK   34  A    between atoms: _88  and  _89
REMARK   35  A    between atoms: _94  and  _96
REMARK   36  A    between atoms: _96  and  _97
REMARK   37  A    between atoms: _96  and  _99
REMARK   38  A    between atoms: _99  and  _100
REMARK   39  A    between atoms: _103  and  _105
REMARK   40  A    between atoms: _105  and  _106
REMARK   41  A    between atoms: _105  and  _108
REMARK   42  A    between atoms: _108  and  _109
REMARK   43  A    between atoms: _109  and  _111
REMARK   44  A    between atoms: _111  and  ZN_362
REMARK   45  A    between atoms: _112  and  _114
REMARK   46  A    between atoms: _114  and  _115
REMARK   47  A    between atoms: _114  and  _117
REMARK   48  A    between atoms: _117  and  _118
REMARK   49  A    between atoms: _118  and  _119
REMARK   50  A    between atoms: _119  and  _120
REMARK   51  A    between atoms: _129  and  _131
REMARK   52  A    between atoms: _131  and  _132
REMARK   53  A    between atoms: _131  and  _134
REMARK   54  A    between atoms: _134  and  _135
REMARK   55  A    between atoms: _138  and  _140
REMARK   56  A    between atoms: _140  and  _141
REMARK   57  A    between atoms: _140  and  _143
REMARK   58  A    between atoms: _143  and  _144
REMARK   59  A    between atoms: _150  and  _152
REMARK   60  A    between atoms: _152  and  _153
REMARK   61  A    between atoms: _152  and  _155
REMARK   62  A    between atoms: _155  and  _156
REMARK   63  A    between atoms: _159  and  _161
REMARK   64  A    between atoms: _161  and  _162
REMARK   65  A    between atoms: _164  and  _166
REMARK   66  A    between atoms: _166  and  _167
REMARK   67  A    between atoms: _166  and  _169
REMARK   68  A    between atoms: _169  and  _170
REMARK   69  A    between atoms: _173  and  _175
REMARK   70  A    between atoms: _175  and  _176
REMARK   71  A    between atoms: _175  and  _178
REMARK   72  A    between atoms: _178  and  _179
REMARK   73  A    between atoms: _184  and  _186
REMARK   74  A    between atoms: _186  and  _187
REMARK   75  A    between atoms: _186  and  _189
REMARK   76  A    between atoms: _189  and  _190
REMARK   77  A    between atoms: _193  and  _195
REMARK   78  A    between atoms: _195  and  _196
REMARK   79  A    between atoms: _195  and  _198
REMARK   80  A    between atoms: _198  and  _199
REMARK   81  A    between atoms: _204  and  _206
REMARK   82  A    between atoms: _206  and  _207
REMARK   83  A    between atoms: _206  and  _209
REMARK   84  A    between atoms: _209  and  _210
REMARK   85  A    between atoms: _210  and  ZN_362
REMARK   86  A    between atoms: _211  and  _213
REMARK   87  A    between atoms: _213  and  _214
REMARK   88  A    between atoms: _213  and  _216
REMARK   89  A    between atoms: _216  and  _217
REMARK   90  A    between atoms: _220  and  _222
REMARK   91  A    between atoms: _222  and  _223
REMARK   92  A    between atoms: _222  and  _225
REMARK   93  A    between atoms: _225  and  _226
REMARK   94  A    between atoms: _229  and  _231
REMARK   95  A    between atoms: _231  and  _232
REMARK   96  A    between atoms: _231  and  _234
REMARK   97  A    between atoms: _234  and  _235
REMARK   98  A    between atoms: _235  and  _236
REMARK   99  A    between atoms: _236  and  _237
REMARK  100  A    between atoms: _237  and  _238
REMARK  101  A    between atoms: _242  and  _244
REMARK  102  A    between atoms: _244  and  _245
REMARK  103  A    between atoms: _244  and  _247
REMARK  104  A    between atoms: _247  and  _248
REMARK  105  A    between atoms: _248  and  _249
REMARK  106  A    between atoms: _249  and  _250
REMARK  107  A    between atoms: _250  and  _251
REMARK  108  A    between atoms: _255  and  _257
REMARK  109  A    between atoms: _257  and  _258
REMARK  110  A    between atoms: _257  and  _260
REMARK  111  A    between atoms: _260  and  _261
REMARK  112  A    between atoms: _264  and  _266
REMARK  113  A    between atoms: _266  and  _267
REMARK  114  A    between atoms: _269  and  _271
REMARK  115  A    between atoms: _271  and  _272
REMARK  116  A    between atoms: _271  and  _274
REMARK  117  A    between atoms: _274  and  _275
REMARK  118  A    between atoms: _280  and  _282
REMARK  119  A    between atoms: _282  and  _283
REMARK  120  A    between atoms: _282  and  _285
REMARK  121  A    between atoms: _285  and  _286
REMARK  122  A    between atoms: _289  and  _291
REMARK  123  A    between atoms: _291  and  _292
REMARK  124  A    between atoms: _291  and  _294
REMARK  125  A    between atoms: _294  and  _295
REMARK  126  A    between atoms: _297  and  _299
REMARK  127  A    between atoms: _299  and  _300
REMARK  128  A    between atoms: _299  and  _302
REMARK  129  A    between atoms: _302  and  _303
REMARK  130  A    between atoms: _309  and  _311
REMARK  131  A    between atoms: _311  and  _312
REMARK  132  A    between atoms: _311  and  _314
REMARK  133  A    between atoms: _314  and  _315
REMARK  134  A    between atoms: _320  and  _321
REMARK  135  A    between atoms: _323  and  _325
REMARK  136  A    between atoms: _325  and  _326
REMARK  137  A    between atoms: _328  and  _330
REMARK  138  A    between atoms: _330  and  _331
REMARK  139  A    between atoms: _330  and  _333
REMARK  140  A    between atoms: _333  and  _334
REMARK  141  A    between atoms: _338  and  ZN_362
REMARK  142  A    between atoms: _339  and  _341
REMARK  143  A    between atoms: _341  and  _342
REMARK  144  A    between atoms: _341  and  _344
REMARK  145  A    between atoms: _344  and  _345
REMARK  146  A    between atoms: _348  and  _350
REMARK  147  A    between atoms: _350  and  _351
REMARK  148  A    between atoms: _350  and  _353
REMARK  149  A    between atoms: _353  and  _354
REMARK  150  A    between atoms: _359  and  _360
REMARK                            x       y       z     vdW  Elec       q    Type
REMARK                         _______ _______ _______ _____ _____    ______ ____
ROOT
ATOM      1  O   HOH     1      21.482  47.888  66.002  0.00  0.00    +0.000 OA
ENDROOT
TORSDOF 0
REMARK  Name = ../refined-set-2016/2gkl/2gkl_pocket.pdb
REMARK  150 active torsions:
REMARK  status: ('A' for Active; 'I' for Inactive)
REMARK    1  A    between atoms: _1  and  _3
REMARK    2  A    between atoms: _3  and  _4
REMARK    3  A    between atoms: _3  and  _6
REMARK    4  A    between atoms: _6  and  _7
REMARK    5  A    between atoms: _12  and  _13
REMARK    6  A    between atoms: _15  and  _17
REMARK    7  A    between atoms: _17  and  _18
REMARK    8  A    between atoms: _17  and  _20
REMARK    9  A    between atoms: _23  and  _25
REMARK   10  A    between atoms: _25  and  _26
REMARK   11  A    between atoms: _25  and  _28
REMARK   12  A    between atoms: _28  and  _29
REMARK   13  A    between atoms: _29  and  _30
REMARK   14  A    between atoms: _35  and  _37
REMARK   15  A    between atoms: _37  and  _38
REMARK   16  A    between atoms: _37  and  _40
REMARK   17  A    between atoms: _40  and  _41
REMARK   18  A    between atoms: _41  and  _42
REMARK   19  A    between atoms: _45  and  _47
REMARK   20  A    between atoms: _47  and  _48
REMARK   21  A    between atoms: _47  and  _50
REMARK   22  A    between atoms: _50  and  _51
REMARK   23  A    between atoms: _56  and  _58
REMARK   24  A    between atoms: _58  and  _59
REMARK   25  A    between atoms: _58  and  _61
REMARK   26  A    between atoms: _61  and  _62
REMARK   27  A    between atoms: _72  and  _74
REMARK   28  A    between atoms: _74  and  _75
REMARK   29  A    between atoms: _74  and  _77
REMARK   30  A    between atoms: _77  and  _78
REMARK   31  A    between atoms: _83  and  _85
REMARK   32  A    between atoms: _85  and  _86
REMARK   33  A    between atoms: _85  and  _88
REMARK   34  A    between atoms: _88  and  _89
REMARK   35  A    between atoms: _94  and  _96
REMARK   36  A    between atoms: _96  and  _97
REMARK   37  A    between atoms: _96  and  _99
REMARK   38  A    between atoms: _99  and  _100
REMARK   39  A    between atoms: _103  and  _105
REMARK   40  A    between atoms: _105  and  _106
REMARK   41  A    between atoms: _105  and  _108
REMARK   42  A    between atoms: _108  and  _109
REMARK   43  A    between atoms: _109  and  _111
REMARK   44  A    between atoms: _111  and  ZN_362
REMARK   45  A    between atoms: _112  and  _114
REMARK   46  A    between atoms: _114  and  _115
REMARK   47  A    between atoms: _114  and  _117
REMARK   48  A    between atoms: _117  and  _118
REMARK   49  A    between atoms: _118  and  _119
REMARK   50  A    between atoms: _119  and  _120
REMARK   51  A    between atoms: _129  and  _131
REMARK   52  A    between atoms: _131  and  _132
REMARK   53  A    between atoms: _131  and  _134
REMARK   54  A    between atoms: _134  and  _135
REMARK   55  A    between atoms: _138  and  _140
REMARK   56  A    between atoms: _140  and  _141
REMARK   57  A    between atoms: _140  and  _143
REMARK   58  A    between atoms: _143  and  _144
REMARK   59  A    between atoms: _150  and  _152
REMARK   60  A    between atoms: _152  and  _153
REMARK   61  A    between atoms: _152  and  _155
REMARK   62  A    between atoms: _155  and  _156
REMARK   63  A    between atoms: _159  and  _161
REMARK   64  A    between atoms: _161  and  _162
REMARK   65  A    between atoms: _164  and  _166
REMARK   66  A    between atoms: _166  and  _167
REMARK   67  A    between atoms: _166  and  _169
REMARK   68  A    between atoms: _169  and  _170
REMARK   69  A    between atoms: _173  and  _175
REMARK   70  A    between atoms: _175  and  _176
REMARK   71  A    between atoms: _175  and  _178
REMARK   72  A    between atoms: _178  and  _179
REMARK   73  A    between atoms: _184  and  _186
REMARK   74  A    between atoms: _186  and  _187
REMARK   75  A    between atoms: _186  and  _189
REMARK   76  A    between atoms: _189  and  _190
REMARK   77  A    between atoms: _193  and  _195
REMARK   78  A    between atoms: _195  and  _196
REMARK   79  A    between atoms: _195  and  _198
REMARK   80  A    between atoms: _198  and  _199
REMARK   81  A    between atoms: _204  and  _206
REMARK   82  A    between atoms: _206  and  _207
REMARK   83  A    between atoms: _206  and  _209
REMARK   84  A    between atoms: _209  and  _210
REMARK   85  A    between atoms: _210  and  ZN_362
REMARK   86  A    between atoms: _211  and  _213
REMARK   87  A    between atoms: _213  and  _214
REMARK   88  A    between atoms: _213  and  _216
REMARK   89  A    between atoms: _216  and  _217
REMARK   90  A    between atoms: _220  and  _222
REMARK   91  A    between atoms: _222  and  _223
REMARK   92  A    between atoms: _222  and  _225
REMARK   93  A    between atoms: _225  and  _226
REMARK   94  A    between atoms: _229  and  _231
REMARK   95  A    between atoms: _231  and  _232
REMARK   96  A    between atoms: _231  and  _234
REMARK   97  A    between atoms: _234  and  _235
REMARK   98  A    between atoms: _235  and  _236
REMARK   99  A    between atoms: _236  and  _237
REMARK  100  A    between atoms: _237  and  _238
REMARK  101  A    between atoms: _242  and  _244
REMARK  102  A    between atoms: _244  and  _245
REMARK  103  A    between atoms: _244  and  _247
REMARK  104  A    between atoms: _247  and  _248
REMARK  105  A    between atoms: _248  and  _249
REMARK  106  A    between atoms: _249  and  _250
REMARK  107  A    between atoms: _250  and  _251
REMARK  108  A    between atoms: _255  and  _257
REMARK  109  A    between atoms: _257  and  _258
REMARK  110  A    between atoms: _257  and  _260
REMARK  111  A    between atoms: _260  and  _261
REMARK  112  A    between atoms: _264  and  _266
REMARK  113  A    between atoms: _266  and  _267
REMARK  114  A    between atoms: _269  and  _271
REMARK  115  A    between atoms: _271  and  _272
REMARK  116  A    between atoms: _271  and  _274
REMARK  117  A    between atoms: _274  and  _275
REMARK  118  A    between atoms: _280  and  _282
REMARK  119  A    between atoms: _282  and  _283
REMARK  120  A    between atoms: _282  and  _285
REMARK  121  A    between atoms: _285  and  _286
REMARK  122  A    between atoms: _289  and  _291
REMARK  123  A    between atoms: _291  and  _292
REMARK  124  A    between atoms: _291  and  _294
REMARK  125  A    between atoms: _294  and  _295
REMARK  126  A    between atoms: _297  and  _299
REMARK  127  A    between atoms: _299  and  _300
REMARK  128  A    between atoms: _299  and  _302
REMARK  129  A    between atoms: _302  and  _303
REMARK  130  A    between atoms: _309  and  _311
REMARK  131  A    between atoms: _311  and  _312
REMARK  132  A    between atoms: _311  and  _314
REMARK  133  A    between atoms: _314  and  _315
REMARK  134  A    between atoms: _320  and  _321
REMARK  135  A    between atoms: _323  and  _325
REMARK  136  A    between atoms: _325  and  _326
REMARK  137  A    between atoms: _328  and  _330
REMARK  138  A    between atoms: _330  and  _331
REMARK  139  A    between atoms: _330  and  _333
REMARK  140  A    between atoms: _333  and  _334
REMARK  141  A    between atoms: _338  and  ZN_362
REMARK  142  A    between atoms: _339  and  _341
REMARK  143  A    between atoms: _341  and  _342
REMARK  144  A    between atoms: _341  and  _344
REMARK  145  A    between atoms: _344  and  _345
REMARK  146  A    between atoms: _348  and  _350
REMARK  147  A    between atoms: _350  and  _351
REMARK  148  A    between atoms: _350  and  _353
REMARK  149  A    between atoms: _353  and  _354
REMARK  150  A    between atoms: _359  and  _360
REMARK                            x       y       z     vdW  Elec       q    Type
REMARK                         _______ _______ _______ _____ _____    ______ ____
ROOT
ATOM      1  O   HOH     1      23.674  43.930  66.449  0.00  0.00    +0.000 OA
ENDROOT
TORSDOF 0
REMARK  Name = ../refined-set-2016/2gkl/2gkl_pocket.pdb
REMARK  150 active torsions:
REMARK  status: ('A' for Active; 'I' for Inactive)
REMARK    1  A    between atoms: _1  and  _3
REMARK    2  A    between atoms: _3  and  _4
REMARK    3  A    between atoms: _3  and  _6
REMARK    4  A    between atoms: _6  and  _7
REMARK    5  A    between atoms: _12  and  _13
REMARK    6  A    between atoms: _15  and  _17
REMARK    7  A    between atoms: _17  and  _18
REMARK    8  A    between atoms: _17  and  _20
REMARK    9  A    between atoms: _23  and  _25
REMARK   10  A    between atoms: _25  and  _26
REMARK   11  A    between atoms: _25  and  _28
REMARK   12  A    between atoms: _28  and  _29
REMARK   13  A    between atoms: _29  and  _30
REMARK   14  A    between atoms: _35  and  _37
REMARK   15  A    between atoms: _37  and  _38
REMARK   16  A    between atoms: _37  and  _40
REMARK   17  A    between atoms: _40  and  _41
REMARK   18  A    between atoms: _41  and  _42
REMARK   19  A    between atoms: _45  and  _47
REMARK   20  A    between atoms: _47  and  _48
REMARK   21  A    between atoms: _47  and  _50
REMARK   22  A    between atoms: _50  and  _51
REMARK   23  A    between atoms: _56  and  _58
REMARK   24  A    between atoms: _58  and  _59
REMARK   25  A    between atoms: _58  and  _61
REMARK   26  A    between atoms: _61  and  _62
REMARK   27  A    between atoms: _72  and  _74
REMARK   28  A    between atoms: _74  and  _75
REMARK   29  A    between atoms: _74  and  _77
REMARK   30  A    between atoms: _77  and  _78
REMARK   31  A    between atoms: _83  and  _85
REMARK   32  A    between atoms: _85  and  _86
REMARK   33  A    between atoms: _85  and  _88
REMARK   34  A    between atoms: _88  and  _89
REMARK   35  A    between atoms: _94  and  _96
REMARK   36  A    between atoms: _96  and  _97
REMARK   37  A    between atoms: _96  and  _99
REMARK   38  A    between atoms: _99  and  _100
REMARK   39  A    between atoms: _103  and  _105
REMARK   40  A    between atoms: _105  and  _106
REMARK   41  A    between atoms: _105  and  _108
REMARK   42  A    between atoms: _108  and  _109
REMARK   43  A    between atoms: _109  and  _111
REMARK   44  A    between atoms: _111  and  ZN_362
REMARK   45  A    between atoms: _112  and  _114
REMARK   46  A    between atoms: _114  and  _115
REMARK   47  A    between atoms: _114  and  _117
REMARK   48  A    between atoms: _117  and  _118
REMARK   49  A    between atoms: _118  and  _119
REMARK   50  A    between atoms: _119  and  _120
REMARK   51  A    between atoms: _129  and  _131
REMARK   52  A    between atoms: _131  and  _132
REMARK   53  A    between atoms: _131  and  _134
REMARK   54  A    between atoms: _134  and  _135
REMARK   55  A    between atoms: _138  and  _140
REMARK   56  A    between atoms: _140  and  _141
REMARK   57  A    between atoms: _140  and  _143
REMARK   58  A    between atoms: _143  and  _144
REMARK   59  A    between atoms: _150  and  _152
REMARK   60  A    between atoms: _152  and  _153
REMARK   61  A    between atoms: _152  and  _155
REMARK   62  A    between atoms: _155  and  _156
REMARK   63  A    between atoms: _159  and  _161
REMARK   64  A    between atoms: _161  and  _162
REMARK   65  A    between atoms: _164  and  _166
REMARK   66  A    between atoms: _166  and  _167
REMARK   67  A    between atoms: _166  and  _169
REMARK   68  A    between atoms: _169  and  _170
REMARK   69  A    between atoms: _173  and  _175
REMARK   70  A    between atoms: _175  and  _176
REMARK   71  A    between atoms: _175  and  _178
REMARK   72  A    between atoms: _178  and  _179
REMARK   73  A    between atoms: _184  and  _186
REMARK   74  A    between atoms: _186  and  _187
REMARK   75  A    between atoms: _186  and  _189
REMARK   76  A    between atoms: _189  and  _190
REMARK   77  A    between atoms: _193  and  _195
REMARK   78  A    between atoms: _195  and  _196
REMARK   79  A    between atoms: _195  and  _198
REMARK   80  A    between atoms: _198  and  _199
REMARK   81  A    between atoms: _204  and  _206
REMARK   82  A    between atoms: _206  and  _207
REMARK   83  A    between atoms: _206  and  _209
REMARK   84  A    between atoms: _209  and  _210
REMARK   85  A    between atoms: _210  and  ZN_362
REMARK   86  A    between atoms: _211  and  _213
REMARK   87  A    between atoms: _213  and  _214
REMARK   88  A    between atoms: _213  and  _216
REMARK   89  A    between atoms: _216  and  _217
REMARK   90  A    between atoms: _220  and  _222
REMARK   91  A    between atoms: _222  and  _223
REMARK   92  A    between atoms: _222  and  _225
REMARK   93  A    between atoms: _225  and  _226
REMARK   94  A    between atoms: _229  and  _231
REMARK   95  A    between atoms: _231  and  _232
REMARK   96  A    between atoms: _231  and  _234
REMARK   97  A    between atoms: _234  and  _235
REMARK   98  A    between atoms: _235  and  _236
REMARK   99  A    between atoms: _236  and  _237
REMARK  100  A    between atoms: _237  and  _238
REMARK  101  A    between atoms: _242  and  _244
REMARK  102  A    between atoms: _244  and  _245
REMARK  103  A    between atoms: _244  and  _247
REMARK  104  A    between atoms: _247  and  _248
REMARK  105  A    between atoms: _248  and  _249
REMARK  106  A    between atoms: _249  and  _250
REMARK  107  A    between atoms: _250  and  _251
REMARK  108  A    between atoms: _255  and  _257
REMARK  109  A    between atoms: _257  and  _258
REMARK  110  A    between atoms: _257  and  _260
REMARK  111  A    between atoms: _260  and  _261
REMARK  112  A    between atoms: _264  and  _266
REMARK  113  A    between atoms: _266  and  _267
REMARK  114  A    between atoms: _269  and  _271
REMARK  115  A    between atoms: _271  and  _272
REMARK  116  A    between atoms: _271  and  _274
REMARK  117  A    between atoms: _274  and  _275
REMARK  118  A    between atoms: _280  and  _282
REMARK  119  A    between atoms: _282  and  _283
REMARK  120  A    between atoms: _282  and  _285
REMARK  121  A    between atoms: _285  and  _286
REMARK  122  A    between atoms: _289  and  _291
REMARK  123  A    between atoms: _291  and  _292
REMARK  124  A    between atoms: _291  and  _294
REMARK  125  A    between atoms: _294  and  _295
REMARK  126  A    between atoms: _297  and  _299
REMARK  127  A    between atoms: _299  and  _300
REMARK  128  A    between atoms: _299  and  _302
REMARK  129  A    between atoms: _302  and  _303
REMARK  130  A    between atoms: _309  and  _311
REMARK  131  A    between atoms: _311  and  _312
REMARK  132  A    between atoms: _311  and  _314
REMARK  133  A    between atoms: _314  and  _315
REMARK  134  A    between atoms: _320  and  _321
REMARK  135  A    between atoms: _323  and  _325
REMARK  136  A    between atoms: _325  and  _326
REMARK  137  A    between atoms: _328  and  _330
REMARK  138  A    between atoms: _330  and  _331
REMARK  139  A    between atoms: _330  and  _333
REMARK  140  A    between atoms: _333  and  _334
REMARK  141  A    between atoms: _338  and  ZN_362
REMARK  142  A    between atoms: _339  and  _341
REMARK  143  A    between atoms: _341  and  _342
REMARK  144  A    between atoms: _341  and  _344
REMARK  145  A    between atoms: _344  and  _345
REMARK  146  A    between atoms: _348  and  _350
REMARK  147  A    between atoms: _350  and  _351
REMARK  148  A    between atoms: _350  and  _353
REMARK  149  A    between atoms: _353  and  _354
REMARK  150  A    between atoms: _359  and  _360
REMARK                            x       y       z     vdW  Elec       q    Type
REMARK                         _______ _______ _______ _____ _____    ______ ____
ROOT
ATOM      1  O   HOH     1      15.332  46.611  71.719  0.00  0.00    +0.000 OA
ENDROOT
TORSDOF 0
REMARK  Name = ../refined-set-2016/2gkl/2gkl_pocket.pdb
REMARK  150 active torsions:
REMARK  status: ('A' for Active; 'I' for Inactive)
REMARK    1  A    between atoms: _1  and  _3
REMARK    2  A    between atoms: _3  and  _4
REMARK    3  A    between atoms: _3  and  _6
REMARK    4  A    between atoms: _6  and  _7
REMARK    5  A    between atoms: _12  and  _13
REMARK    6  A    between atoms: _15  and  _17
REMARK    7  A    between atoms: _17  and  _18
REMARK    8  A    between atoms: _17  and  _20
REMARK    9  A    between atoms: _23  and  _25
REMARK   10  A    between atoms: _25  and  _26
REMARK   11  A    between atoms: _25  and  _28
REMARK   12  A    between atoms: _28  and  _29
REMARK   13  A    between atoms: _29  and  _30
REMARK   14  A    between atoms: _35  and  _37
REMARK   15  A    between atoms: _37  and  _38
REMARK   16  A    between atoms: _37  and  _40
REMARK   17  A    between atoms: _40  and  _41
REMARK   18  A    between atoms: _41  and  _42
REMARK   19  A    between atoms: _45  and  _47
REMARK   20  A    between atoms: _47  and  _48
REMARK   21  A    between atoms: _47  and  _50
REMARK   22  A    between atoms: _50  and  _51
REMARK   23  A    between atoms: _56  and  _58
REMARK   24  A    between atoms: _58  and  _59
REMARK   25  A    between atoms: _58  and  _61
REMARK   26  A    between atoms: _61  and  _62
REMARK   27  A    between atoms: _72  and  _74
REMARK   28  A    between atoms: _74  and  _75
REMARK   29  A    between atoms: _74  and  _77
REMARK   30  A    between atoms: _77  and  _78
REMARK   31  A    between atoms: _83  and  _85
REMARK   32  A    between atoms: _85  and  _86
REMARK   33  A    between atoms: _85  and  _88
REMARK   34  A    between atoms: _88  and  _89
REMARK   35  A    between atoms: _94  and  _96
REMARK   36  A    between atoms: _96  and  _97
REMARK   37  A    between atoms: _96  and  _99
REMARK   38  A    between atoms: _99  and  _100
REMARK   39  A    between atoms: _103  and  _105
REMARK   40  A    between atoms: _105  and  _106
REMARK   41  A    between atoms: _105  and  _108
REMARK   42  A    between atoms: _108  and  _109
REMARK   43  A    between atoms: _109  and  _111
REMARK   44  A    between atoms: _111  and  ZN_362
REMARK   45  A    between atoms: _112  and  _114
REMARK   46  A    between atoms: _114  and  _115
REMARK   47  A    between atoms: _114  and  _117
REMARK   48  A    between atoms: _117  and  _118
REMARK   49  A    between atoms: _118  and  _119
REMARK   50  A    between atoms: _119  and  _120
REMARK   51  A    between atoms: _129  and  _131
REMARK   52  A    between atoms: _131  and  _132
REMARK   53  A    between atoms: _131  and  _134
REMARK   54  A    between atoms: _134  and  _135
REMARK   55  A    between atoms: _138  and  _140
REMARK   56  A    between atoms: _140  and  _141
REMARK   57  A    between atoms: _140  and  _143
REMARK   58  A    between atoms: _143  and  _144
REMARK   59  A    between atoms: _150  and  _152
REMARK   60  A    between atoms: _152  and  _153
REMARK   61  A    between atoms: _152  and  _155
REMARK   62  A    between atoms: _155  and  _156
REMARK   63  A    between atoms: _159  and  _161
REMARK   64  A    between atoms: _161  and  _162
REMARK   65  A    between atoms: _164  and  _166
REMARK   66  A    between atoms: _166  and  _167
REMARK   67  A    between atoms: _166  and  _169
REMARK   68  A    between atoms: _169  and  _170
REMARK   69  A    between atoms: _173  and  _175
REMARK   70  A    between atoms: _175  and  _176
REMARK   71  A    between atoms: _175  and  _178
REMARK   72  A    between atoms: _178  and  _179
REMARK   73  A    between atoms: _184  and  _186
REMARK   74  A    between atoms: _186  and  _187
REMARK   75  A    between atoms: _186  and  _189
REMARK   76  A    between atoms: _189  and  _190
REMARK   77  A    between atoms: _193  and  _195
REMARK   78  A    between atoms: _195  and  _196
REMARK   79  A    between atoms: _195  and  _198
REMARK   80  A    between atoms: _198  and  _199
REMARK   81  A    between atoms: _204  and  _206
REMARK   82  A    between atoms: _206  and  _207
REMARK   83  A    between atoms: _206  and  _209
REMARK   84  A    between atoms: _209  and  _210
REMARK   85  A    between atoms: _210  and  ZN_362
REMARK   86  A    between atoms: _211  and  _213
REMARK   87  A    between atoms: _213  and  _214
REMARK   88  A    between atoms: _213  and  _216
REMARK   89  A    between atoms: _216  and  _217
REMARK   90  A    between atoms: _220  and  _222
REMARK   91  A    between atoms: _222  and  _223
REMARK   92  A    between atoms: _222  and  _225
REMARK   93  A    between atoms: _225  and  _226
REMARK   94  A    between atoms: _229  and  _231
REMARK   95  A    between atoms: _231  and  _232
REMARK   96  A    between atoms: _231  and  _234
REMARK   97  A    between atoms: _234  and  _235
REMARK   98  A    between atoms: _235  and  _236
REMARK   99  A    between atoms: _236  and  _237
REMARK  100  A    between atoms: _237  and  _238
REMARK  101  A    between atoms: _242  and  _244
REMARK  102  A    between atoms: _244  and  _245
REMARK  103  A    between atoms: _244  and  _247
REMARK  104  A    between atoms: _247  and  _248
REMARK  105  A    between atoms: _248  and  _249
REMARK  106  A    between atoms: _249  and  _250
REMARK  107  A    between atoms: _250  and  _251
REMARK  108  A    between atoms: _255  and  _257
REMARK  109  A    between atoms: _257  and  _258
REMARK  110  A    between atoms: _257  and  _260
REMARK  111  A    between atoms: _260  and  _261
REMARK  112  A    between atoms: _264  and  _266
REMARK  113  A    between atoms: _266  and  _267
REMARK  114  A    between atoms: _269  and  _271
REMARK  115  A    between atoms: _271  and  _272
REMARK  116  A    between atoms: _271  and  _274
REMARK  117  A    between atoms: _274  and  _275
REMARK  118  A    between atoms: _280  and  _282
REMARK  119  A    between atoms: _282  and  _283
REMARK  120  A    between atoms: _282  and  _285
REMARK  121  A    between atoms: _285  and  _286
REMARK  122  A    between atoms: _289  and  _291
REMARK  123  A    between atoms: _291  and  _292
REMARK  124  A    between atoms: _291  and  _294
REMARK  125  A    between atoms: _294  and  _295
REMARK  126  A    between atoms: _297  and  _299
REMARK  127  A    between atoms: _299  and  _300
REMARK  128  A    between atoms: _299  and  _302
REMARK  129  A    between atoms: _302  and  _303
REMARK  130  A    between atoms: _309  and  _311
REMARK  131  A    between atoms: _311  and  _312
REMARK  132  A    between atoms: _311  and  _314
REMARK  133  A    between atoms: _314  and  _315
REMARK  134  A    between atoms: _320  and  _321
REMARK  135  A    between atoms: _323  and  _325
REMARK  136  A    between atoms: _325  and  _326
REMARK  137  A    between atoms: _328  and  _330
REMARK  138  A    between atoms: _330  and  _331
REMARK  139  A    between atoms: _330  and  _333
REMARK  140  A    between atoms: _333  and  _334
REMARK  141  A    between atoms: _338  and  ZN_362
REMARK  142  A    between atoms: _339  and  _341
REMARK  143  A    between atoms: _341  and  _342
REMARK  144  A    between atoms: _341  and  _344
REMARK  145  A    between atoms: _344  and  _345
REMARK  146  A    between atoms: _348  and  _350
REMARK  147  A    between atoms: _350  and  _351
REMARK  148  A    between atoms: _350  and  _353
REMARK  149  A    between atoms: _353  and  _354
REMARK  150  A    between atoms: _359  and  _360
REMARK                            x       y       z     vdW  Elec       q    Type
REMARK                         _______ _______ _______ _____ _____    ______ ____
ROOT
ATOM      1  O   HOH     1      13.973  48.879  69.920  0.00  0.00    +0.000 OA
ENDROOT
TORSDOF 0
REMARK  Name = ../refined-set-2016/2gkl/2gkl_pocket.pdb
REMARK  150 active torsions:
REMARK  status: ('A' for Active; 'I' for Inactive)
REMARK    1  A    between atoms: _1  and  _3
REMARK    2  A    between atoms: _3  and  _4
REMARK    3  A    between atoms: _3  and  _6
REMARK    4  A    between atoms: _6  and  _7
REMARK    5  A    between atoms: _12  and  _13
REMARK    6  A    between atoms: _15  and  _17
REMARK    7  A    between atoms: _17  and  _18
REMARK    8  A    between atoms: _17  and  _20
REMARK    9  A    between atoms: _23  and  _25
REMARK   10  A    between atoms: _25  and  _26
REMARK   11  A    between atoms: _25  and  _28
REMARK   12  A    between atoms: _28  and  _29
REMARK   13  A    between atoms: _29  and  _30
REMARK   14  A    between atoms: _35  and  _37
REMARK   15  A    between atoms: _37  and  _38
REMARK   16  A    between atoms: _37  and  _40
REMARK   17  A    between atoms: _40  and  _41
REMARK   18  A    between atoms: _41  and  _42
REMARK   19  A    between atoms: _45  and  _47
REMARK   20  A    between atoms: _47  and  _48
REMARK   21  A    between atoms: _47  and  _50
REMARK   22  A    between atoms: _50  and  _51
REMARK   23  A    between atoms: _56  and  _58
REMARK   24  A    between atoms: _58  and  _59
REMARK   25  A    between atoms: _58  and  _61
REMARK   26  A    between atoms: _61  and  _62
REMARK   27  A    between atoms: _72  and  _74
REMARK   28  A    between atoms: _74  and  _75
REMARK   29  A    between atoms: _74  and  _77
REMARK   30  A    between atoms: _77  and  _78
REMARK   31  A    between atoms: _83  and  _85
REMARK   32  A    between atoms: _85  and  _86
REMARK   33  A    between atoms: _85  and  _88
REMARK   34  A    between atoms: _88  and  _89
REMARK   35  A    between atoms: _94  and  _96
REMARK   36  A    between atoms: _96  and  _97
REMARK   37  A    between atoms: _96  and  _99
REMARK   38  A    between atoms: _99  and  _100
REMARK   39  A    between atoms: _103  and  _105
REMARK   40  A    between atoms: _105  and  _106
REMARK   41  A    between atoms: _105  and  _108
REMARK   42  A    between atoms: _108  and  _109
REMARK   43  A    between atoms: _109  and  _111
REMARK   44  A    between atoms: _111  and  ZN_362
REMARK   45  A    between atoms: _112  and  _114
REMARK   46  A    between atoms: _114  and  _115
REMARK   47  A    between atoms: _114  and  _117
REMARK   48  A    between atoms: _117  and  _118
REMARK   49  A    between atoms: _118  and  _119
REMARK   50  A    between atoms: _119  and  _120
REMARK   51  A    between atoms: _129  and  _131
REMARK   52  A    between atoms: _131  and  _132
REMARK   53  A    between atoms: _131  and  _134
REMARK   54  A    between atoms: _134  and  _135
REMARK   55  A    between atoms: _138  and  _140
REMARK   56  A    between atoms: _140  and  _141
REMARK   57  A    between atoms: _140  and  _143
REMARK   58  A    between atoms: _143  and  _144
REMARK   59  A    between atoms: _150  and  _152
REMARK   60  A    between atoms: _152  and  _153
REMARK   61  A    between atoms: _152  and  _155
REMARK   62  A    between atoms: _155  and  _156
REMARK   63  A    between atoms: _159  and  _161
REMARK   64  A    between atoms: _161  and  _162
REMARK   65  A    between atoms: _164  and  _166
REMARK   66  A    between atoms: _166  and  _167
REMARK   67  A    between atoms: _166  and  _169
REMARK   68  A    between atoms: _169  and  _170
REMARK   69  A    between atoms: _173  and  _175
REMARK   70  A    between atoms: _175  and  _176
REMARK   71  A    between atoms: _175  and  _178
REMARK   72  A    between atoms: _178  and  _179
REMARK   73  A    between atoms: _184  and  _186
REMARK   74  A    between atoms: _186  and  _187
REMARK   75  A    between atoms: _186  and  _189
REMARK   76  A    between atoms: _189  and  _190
REMARK   77  A    between atoms: _193  and  _195
REMARK   78  A    between atoms: _195  and  _196
REMARK   79  A    between atoms: _195  and  _198
REMARK   80  A    between atoms: _198  and  _199
REMARK   81  A    between atoms: _204  and  _206
REMARK   82  A    between atoms: _206  and  _207
REMARK   83  A    between atoms: _206  and  _209
REMARK   84  A    between atoms: _209  and  _210
REMARK   85  A    between atoms: _210  and  ZN_362
REMARK   86  A    between atoms: _211  and  _213
REMARK   87  A    between atoms: _213  and  _214
REMARK   88  A    between atoms: _213  and  _216
REMARK   89  A    between atoms: _216  and  _217
REMARK   90  A    between atoms: _220  and  _222
REMARK   91  A    between atoms: _222  and  _223
REMARK   92  A    between atoms: _222  and  _225
REMARK   93  A    between atoms: _225  and  _226
REMARK   94  A    between atoms: _229  and  _231
REMARK   95  A    between atoms: _231  and  _232
REMARK   96  A    between atoms: _231  and  _234
REMARK   97  A    between atoms: _234  and  _235
REMARK   98  A    between atoms: _235  and  _236
REMARK   99  A    between atoms: _236  and  _237
REMARK  100  A    between atoms: _237  and  _238
REMARK  101  A    between atoms: _242  and  _244
REMARK  102  A    between atoms: _244  and  _245
REMARK  103  A    between atoms: _244  and  _247
REMARK  104  A    between atoms: _247  and  _248
REMARK  105  A    between atoms: _248  and  _249
REMARK  106  A    between atoms: _249  and  _250
REMARK  107  A    between atoms: _250  and  _251
REMARK  108  A    between atoms: _255  and  _257
REMARK  109  A    between atoms: _257  and  _258
REMARK  110  A    between atoms: _257  and  _260
REMARK  111  A    between atoms: _260  and  _261
REMARK  112  A    between atoms: _264  and  _266
REMARK  113  A    between atoms: _266  and  _267
REMARK  114  A    between atoms: _269  and  _271
REMARK  115  A    between atoms: _271  and  _272
REMARK  116  A    between atoms: _271  and  _274
REMARK  117  A    between atoms: _274  and  _275
REMARK  118  A    between atoms: _280  and  _282
REMARK  119  A    between atoms: _282  and  _283
REMARK  120  A    between atoms: _282  and  _285
REMARK  121  A    between atoms: _285  and  _286
REMARK  122  A    between atoms: _289  and  _291
REMARK  123  A    between atoms: _291  and  _292
REMARK  124  A    between atoms: _291  and  _294
REMARK  125  A    between atoms: _294  and  _295
REMARK  126  A    between atoms: _297  and  _299
REMARK  127  A    between atoms: _299  and  _300
REMARK  128  A    between atoms: _299  and  _302
REMARK  129  A    between atoms: _302  and  _303
REMARK  130  A    between atoms: _309  and  _311
REMARK  131  A    between atoms: _311  and  _312
REMARK  132  A    between atoms: _311  and  _314
REMARK  133  A    between atoms: _314  and  _315
REMARK  134  A    between atoms: _320  and  _321
REMARK  135  A    between atoms: _323  and  _325
REMARK  136  A    between atoms: _325  and  _326
REMARK  137  A    between atoms: _328  and  _330
REMARK  138  A    between atoms: _330  and  _331
REMARK  139  A    between atoms: _330  and  _333
REMARK  140  A    between atoms: _333  and  _334
REMARK  141  A    between atoms: _338  and  ZN_362
REMARK  142  A    between atoms: _339  and  _341
REMARK  143  A    between atoms: _341  and  _342
REMARK  144  A    between atoms: _341  and  _344
REMARK  145  A    between atoms: _344  and  _345
REMARK  146  A    between atoms: _348  and  _350
REMARK  147  A    between atoms: _350  and  _351
REMARK  148  A    between atoms: _350  and  _353
REMARK  149  A    between atoms: _353  and  _354
REMARK  150  A    between atoms: _359  and  _360
REMARK                            x       y       z     vdW  Elec       q    Type
REMARK                         _______ _______ _______ _____ _____    ______ ____
ROOT
ATOM      1  O   HOH     1      15.655  50.817  68.673  0.00  0.00    +0.000 OA
ENDROOT
TORSDOF 0
REMARK  Name = ../refined-set-2016/2gkl/2gkl_pocket.pdb
REMARK  150 active torsions:
REMARK  status: ('A' for Active; 'I' for Inactive)
REMARK    1  A    between atoms: _1  and  _3
REMARK    2  A    between atoms: _3  and  _4
REMARK    3  A    between atoms: _3  and  _6
REMARK    4  A    between atoms: _6  and  _7
REMARK    5  A    between atoms: _12  and  _13
REMARK    6  A    between atoms: _15  and  _17
REMARK    7  A    between atoms: _17  and  _18
REMARK    8  A    between atoms: _17  and  _20
REMARK    9  A    between atoms: _23  and  _25
REMARK   10  A    between atoms: _25  and  _26
REMARK   11  A    between atoms: _25  and  _28
REMARK   12  A    between atoms: _28  and  _29
REMARK   13  A    between atoms: _29  and  _30
REMARK   14  A    between atoms: _35  and  _37
REMARK   15  A    between atoms: _37  and  _38
REMARK   16  A    between atoms: _37  and  _40
REMARK   17  A    between atoms: _40  and  _41
REMARK   18  A    between atoms: _41  and  _42
REMARK   19  A    between atoms: _45  and  _47
REMARK   20  A    between atoms: _47  and  _48
REMARK   21  A    between atoms: _47  and  _50
REMARK   22  A    between atoms: _50  and  _51
REMARK   23  A    between atoms: _56  and  _58
REMARK   24  A    between atoms: _58  and  _59
REMARK   25  A    between atoms: _58  and  _61
REMARK   26  A    between atoms: _61  and  _62
REMARK   27  A    between atoms: _72  and  _74
REMARK   28  A    between atoms: _74  and  _75
REMARK   29  A    between atoms: _74  and  _77
REMARK   30  A    between atoms: _77  and  _78
REMARK   31  A    between atoms: _83  and  _85
REMARK   32  A    between atoms: _85  and  _86
REMARK   33  A    between atoms: _85  and  _88
REMARK   34  A    between atoms: _88  and  _89
REMARK   35  A    between atoms: _94  and  _96
REMARK   36  A    between atoms: _96  and  _97
REMARK   37  A    between atoms: _96  and  _99
REMARK   38  A    between atoms: _99  and  _100
REMARK   39  A    between atoms: _103  and  _105
REMARK   40  A    between atoms: _105  and  _106
REMARK   41  A    between atoms: _105  and  _108
REMARK   42  A    between atoms: _108  and  _109
REMARK   43  A    between atoms: _109  and  _111
REMARK   44  A    between atoms: _111  and  ZN_362
REMARK   45  A    between atoms: _112  and  _114
REMARK   46  A    between atoms: _114  and  _115
REMARK   47  A    between atoms: _114  and  _117
REMARK   48  A    between atoms: _117  and  _118
REMARK   49  A    between atoms: _118  and  _119
REMARK   50  A    between atoms: _119  and  _120
REMARK   51  A    between atoms: _129  and  _131
REMARK   52  A    between atoms: _131  and  _132
REMARK   53  A    between atoms: _131  and  _134
REMARK   54  A    between atoms: _134  and  _135
REMARK   55  A    between atoms: _138  and  _140
REMARK   56  A    between atoms: _140  and  _141
REMARK   57  A    between atoms: _140  and  _143
REMARK   58  A    between atoms: _143  and  _144
REMARK   59  A    between atoms: _150  and  _152
REMARK   60  A    between atoms: _152  and  _153
REMARK   61  A    between atoms: _152  and  _155
REMARK   62  A    between atoms: _155  and  _156
REMARK   63  A    between atoms: _159  and  _161
REMARK   64  A    between atoms: _161  and  _162
REMARK   65  A    between atoms: _164  and  _166
REMARK   66  A    between atoms: _166  and  _167
REMARK   67  A    between atoms: _166  and  _169
REMARK   68  A    between atoms: _169  and  _170
REMARK   69  A    between atoms: _173  and  _175
REMARK   70  A    between atoms: _175  and  _176
REMARK   71  A    between atoms: _175  and  _178
REMARK   72  A    between atoms: _178  and  _179
REMARK   73  A    between atoms: _184  and  _186
REMARK   74  A    between atoms: _186  and  _187
REMARK   75  A    between atoms: _186  and  _189
REMARK   76  A    between atoms: _189  and  _190
REMARK   77  A    between atoms: _193  and  _195
REMARK   78  A    between atoms: _195  and  _196
REMARK   79  A    between atoms: _195  and  _198
REMARK   80  A    between atoms: _198  and  _199
REMARK   81  A    between atoms: _204  and  _206
REMARK   82  A    between atoms: _206  and  _207
REMARK   83  A    between atoms: _206  and  _209
REMARK   84  A    between atoms: _209  and  _210
REMARK   85  A    between atoms: _210  and  ZN_362
REMARK   86  A    between atoms: _211  and  _213
REMARK   87  A    between atoms: _213  and  _214
REMARK   88  A    between atoms: _213  and  _216
REMARK   89  A    between atoms: _216  and  _217
REMARK   90  A    between atoms: _220  and  _222
REMARK   91  A    between atoms: _222  and  _223
REMARK   92  A    between atoms: _222  and  _225
REMARK   93  A    between atoms: _225  and  _226
REMARK   94  A    between atoms: _229  and  _231
REMARK   95  A    between atoms: _231  and  _232
REMARK   96  A    between atoms: _231  and  _234
REMARK   97  A    between atoms: _234  and  _235
REMARK   98  A    between atoms: _235  and  _236
REMARK   99  A    between atoms: _236  and  _237
REMARK  100  A    between atoms: _237  and  _238
REMARK  101  A    between atoms: _242  and  _244
REMARK  102  A    between atoms: _244  and  _245
REMARK  103  A    between atoms: _244  and  _247
REMARK  104  A    between atoms: _247  and  _248
REMARK  105  A    between atoms: _248  and  _249
REMARK  106  A    between atoms: _249  and  _250
REMARK  107  A    between atoms: _250  and  _251
REMARK  108  A    between atoms: _255  and  _257
REMARK  109  A    between atoms: _257  and  _258
REMARK  110  A    between atoms: _257  and  _260
REMARK  111  A    between atoms: _260  and  _261
REMARK  112  A    between atoms: _264  and  _266
REMARK  113  A    between atoms: _266  and  _267
REMARK  114  A    between atoms: _269  and  _271
REMARK  115  A    between atoms: _271  and  _272
REMARK  116  A    between atoms: _271  and  _274
REMARK  117  A    between atoms: _274  and  _275
REMARK  118  A    between atoms: _280  and  _282
REMARK  119  A    between atoms: _282  and  _283
REMARK  120  A    between atoms: _282  and  _285
REMARK  121  A    between atoms: _285  and  _286
REMARK  122  A    between atoms: _289  and  _291
REMARK  123  A    between atoms: _291  and  _292
REMARK  124  A    between atoms: _291  and  _294
REMARK  125  A    between atoms: _294  and  _295
REMARK  126  A    between atoms: _297  and  _299
REMARK  127  A    between atoms: _299  and  _300
REMARK  128  A    between atoms: _299  and  _302
REMARK  129  A    between atoms: _302  and  _303
REMARK  130  A    between atoms: _309  and  _311
REMARK  131  A    between atoms: _311  and  _312
REMARK  132  A    between atoms: _311  and  _314
REMARK  133  A    between atoms: _314  and  _315
REMARK  134  A    between atoms: _320  and  _321
REMARK  135  A    between atoms: _323  and  _325
REMARK  136  A    between atoms: _325  and  _326
REMARK  137  A    between atoms: _328  and  _330
REMARK  138  A    between atoms: _330  and  _331
REMARK  139  A    between atoms: _330  and  _333
REMARK  140  A    between atoms: _333  and  _334
REMARK  141  A    between atoms: _338  and  ZN_362
REMARK  142  A    between atoms: _339  and  _341
REMARK  143  A    between atoms: _341  and  _342
REMARK  144  A    between atoms: _341  and  _344
REMARK  145  A    between atoms: _344  and  _345
REMARK  146  A    between atoms: _348  and  _350
REMARK  147  A    between atoms: _350  and  _351
REMARK  148  A    between atoms: _350  and  _353
REMARK  149  A    between atoms: _353  and  _354
REMARK  150  A    between atoms: _359  and  _360
REMARK                            x       y       z     vdW  Elec       q    Type
REMARK                         _______ _______ _______ _____ _____    ______ ____
ROOT
ATOM      1  O   HOH     1      17.788  47.547  71.822  0.00  0.00    +0.000 OA
ENDROOT
TORSDOF 0
REMARK  Name = ../refined-set-2016/2gkl/2gkl_pocket.pdb
REMARK  150 active torsions:
REMARK  status: ('A' for Active; 'I' for Inactive)
REMARK    1  A    between atoms: _1  and  _3
REMARK    2  A    between atoms: _3  and  _4
REMARK    3  A    between atoms: _3  and  _6
REMARK    4  A    between atoms: _6  and  _7
REMARK    5  A    between atoms: _12  and  _13
REMARK    6  A    between atoms: _15  and  _17
REMARK    7  A    between atoms: _17  and  _18
REMARK    8  A    between atoms: _17  and  _20
REMARK    9  A    between atoms: _23  and  _25
REMARK   10  A    between atoms: _25  and  _26
REMARK   11  A    between atoms: _25  and  _28
REMARK   12  A    between atoms: _28  and  _29
REMARK   13  A    between atoms: _29  and  _30
REMARK   14  A    between atoms: _35  and  _37
REMARK   15  A    between atoms: _37  and  _38
REMARK   16  A    between atoms: _37  and  _40
REMARK   17  A    between atoms: _40  and  _41
REMARK   18  A    between atoms: _41  and  _42
REMARK   19  A    between atoms: _45  and  _47
REMARK   20  A    between atoms: _47  and  _48
REMARK   21  A    between atoms: _47  and  _50
REMARK   22  A    between atoms: _50  and  _51
REMARK   23  A    between atoms: _56  and  _58
REMARK   24  A    between atoms: _58  and  _59
REMARK   25  A    between atoms: _58  and  _61
REMARK   26  A    between atoms: _61  and  _62
REMARK   27  A    between atoms: _72  and  _74
REMARK   28  A    between atoms: _74  and  _75
REMARK   29  A    between atoms: _74  and  _77
REMARK   30  A    between atoms: _77  and  _78
REMARK   31  A    between atoms: _83  and  _85
REMARK   32  A    between atoms: _85  and  _86
REMARK   33  A    between atoms: _85  and  _88
REMARK   34  A    between atoms: _88  and  _89
REMARK   35  A    between atoms: _94  and  _96
REMARK   36  A    between atoms: _96  and  _97
REMARK   37  A    between atoms: _96  and  _99
REMARK   38  A    between atoms: _99  and  _100
REMARK   39  A    between atoms: _103  and  _105
REMARK   40  A    between atoms: _105  and  _106
REMARK   41  A    between atoms: _105  and  _108
REMARK   42  A    between atoms: _108  and  _109
REMARK   43  A    between atoms: _109  and  _111
REMARK   44  A    between atoms: _111  and  ZN_362
REMARK   45  A    between atoms: _112  and  _114
REMARK   46  A    between atoms: _114  and  _115
REMARK   47  A    between atoms: _114  and  _117
REMARK   48  A    between atoms: _117  and  _118
REMARK   49  A    between atoms: _118  and  _119
REMARK   50  A    between atoms: _119  and  _120
REMARK   51  A    between atoms: _129  and  _131
REMARK   52  A    between atoms: _131  and  _132
REMARK   53  A    between atoms: _131  and  _134
REMARK   54  A    between atoms: _134  and  _135
REMARK   55  A    between atoms: _138  and  _140
REMARK   56  A    between atoms: _140  and  _141
REMARK   57  A    between atoms: _140  and  _143
REMARK   58  A    between atoms: _143  and  _144
REMARK   59  A    between atoms: _150  and  _152
REMARK   60  A    between atoms: _152  and  _153
REMARK   61  A    between atoms: _152  and  _155
REMARK   62  A    between atoms: _155  and  _156
REMARK   63  A    between atoms: _159  and  _161
REMARK   64  A    between atoms: _161  and  _162
REMARK   65  A    between atoms: _164  and  _166
REMARK   66  A    between atoms: _166  and  _167
REMARK   67  A    between atoms: _166  and  _169
REMARK   68  A    between atoms: _169  and  _170
REMARK   69  A    between atoms: _173  and  _175
REMARK   70  A    between atoms: _175  and  _176
REMARK   71  A    between atoms: _175  and  _178
REMARK   72  A    between atoms: _178  and  _179
REMARK   73  A    between atoms: _184  and  _186
REMARK   74  A    between atoms: _186  and  _187
REMARK   75  A    between atoms: _186  and  _189
REMARK   76  A    between atoms: _189  and  _190
REMARK   77  A    between atoms: _193  and  _195
REMARK   78  A    between atoms: _195  and  _196
REMARK   79  A    between atoms: _195  and  _198
REMARK   80  A    between atoms: _198  and  _199
REMARK   81  A    between atoms: _204  and  _206
REMARK   82  A    between atoms: _206  and  _207
REMARK   83  A    between atoms: _206  and  _209
REMARK   84  A    between atoms: _209  and  _210
REMARK   85  A    between atoms: _210  and  ZN_362
REMARK   86  A    between atoms: _211  and  _213
REMARK   87  A    between atoms: _213  and  _214
REMARK   88  A    between atoms: _213  and  _216
REMARK   89  A    between atoms: _216  and  _217
REMARK   90  A    between atoms: _220  and  _222
REMARK   91  A    between atoms: _222  and  _223
REMARK   92  A    between atoms: _222  and  _225
REMARK   93  A    between atoms: _225  and  _226
REMARK   94  A    between atoms: _229  and  _231
REMARK   95  A    between atoms: _231  and  _232
REMARK   96  A    between atoms: _231  and  _234
REMARK   97  A    between atoms: _234  and  _235
REMARK   98  A    between atoms: _235  and  _236
REMARK   99  A    between atoms: _236  and  _237
REMARK  100  A    between atoms: _237  and  _238
REMARK  101  A    between atoms: _242  and  _244
REMARK  102  A    between atoms: _244  and  _245
REMARK  103  A    between atoms: _244  and  _247
REMARK  104  A    between atoms: _247  and  _248
REMARK  105  A    between atoms: _248  and  _249
REMARK  106  A    between atoms: _249  and  _250
REMARK  107  A    between atoms: _250  and  _251
REMARK  108  A    between atoms: _255  and  _257
REMARK  109  A    between atoms: _257  and  _258
REMARK  110  A    between atoms: _257  and  _260
REMARK  111  A    between atoms: _260  and  _261
REMARK  112  A    between atoms: _264  and  _266
REMARK  113  A    between atoms: _266  and  _267
REMARK  114  A    between atoms: _269  and  _271
REMARK  115  A    between atoms: _271  and  _272
REMARK  116  A    between atoms: _271  and  _274
REMARK  117  A    between atoms: _274  and  _275
REMARK  118  A    between atoms: _280  and  _282
REMARK  119  A    between atoms: _282  and  _283
REMARK  120  A    between atoms: _282  and  _285
REMARK  121  A    between atoms: _285  and  _286
REMARK  122  A    between atoms: _289  and  _291
REMARK  123  A    between atoms: _291  and  _292
REMARK  124  A    between atoms: _291  and  _294
REMARK  125  A    between atoms: _294  and  _295
REMARK  126  A    between atoms: _297  and  _299
REMARK  127  A    between atoms: _299  and  _300
REMARK  128  A    between atoms: _299  and  _302
REMARK  129  A    between atoms: _302  and  _303
REMARK  130  A    between atoms: _309  and  _311
REMARK  131  A    between atoms: _311  and  _312
REMARK  132  A    between atoms: _311  and  _314
REMARK  133  A    between atoms: _314  and  _315
REMARK  134  A    between atoms: _320  and  _321
REMARK  135  A    between atoms: _323  and  _325
REMARK  136  A    between atoms: _325  and  _326
REMARK  137  A    between atoms: _328  and  _330
REMARK  138  A    between atoms: _330  and  _331
REMARK  139  A    between atoms: _330  and  _333
REMARK  140  A    between atoms: _333  and  _334
REMARK  141  A    between atoms: _338  and  ZN_362
REMARK  142  A    between atoms: _339  and  _341
REMARK  143  A    between atoms: _341  and  _342
REMARK  144  A    between atoms: _341  and  _344
REMARK  145  A    between atoms: _344  and  _345
REMARK  146  A    between atoms: _348  and  _350
REMARK  147  A    between atoms: _350  and  _351
REMARK  148  A    between atoms: _350  and  _353
REMARK  149  A    between atoms: _353  and  _354
REMARK  150  A    between atoms: _359  and  _360
REMARK                            x       y       z     vdW  Elec       q    Type
REMARK                         _______ _______ _______ _____ _____    ______ ____
ROOT
ATOM      1  O   HOH     1      21.465  45.417  66.626  0.00  0.00    +0.000 OA
ENDROOT
TORSDOF 0
REMARK  Name = ../refined-set-2016/2gkl/2gkl_pocket.pdb
REMARK  150 active torsions:
REMARK  status: ('A' for Active; 'I' for Inactive)
REMARK    1  A    between atoms: _1  and  _3
REMARK    2  A    between atoms: _3  and  _4
REMARK    3  A    between atoms: _3  and  _6
REMARK    4  A    between atoms: _6  and  _7
REMARK    5  A    between atoms: _12  and  _13
REMARK    6  A    between atoms: _15  and  _17
REMARK    7  A    between atoms: _17  and  _18
REMARK    8  A    between atoms: _17  and  _20
REMARK    9  A    between atoms: _23  and  _25
REMARK   10  A    between atoms: _25  and  _26
REMARK   11  A    between atoms: _25  and  _28
REMARK   12  A    between atoms: _28  and  _29
REMARK   13  A    between atoms: _29  and  _30
REMARK   14  A    between atoms: _35  and  _37
REMARK   15  A    between atoms: _37  and  _38
REMARK   16  A    between atoms: _37  and  _40
REMARK   17  A    between atoms: _40  and  _41
REMARK   18  A    between atoms: _41  and  _42
REMARK   19  A    between atoms: _45  and  _47
REMARK   20  A    between atoms: _47  and  _48
REMARK   21  A    between atoms: _47  and  _50
REMARK   22  A    between atoms: _50  and  _51
REMARK   23  A    between atoms: _56  and  _58
REMARK   24  A    between atoms: _58  and  _59
REMARK   25  A    between atoms: _58  and  _61
REMARK   26  A    between atoms: _61  and  _62
REMARK   27  A    between atoms: _72  and  _74
REMARK   28  A    between atoms: _74  and  _75
REMARK   29  A    between atoms: _74  and  _77
REMARK   30  A    between atoms: _77  and  _78
REMARK   31  A    between atoms: _83  and  _85
REMARK   32  A    between atoms: _85  and  _86
REMARK   33  A    between atoms: _85  and  _88
REMARK   34  A    between atoms: _88  and  _89
REMARK   35  A    between atoms: _94  and  _96
REMARK   36  A    between atoms: _96  and  _97
REMARK   37  A    between atoms: _96  and  _99
REMARK   38  A    between atoms: _99  and  _100
REMARK   39  A    between atoms: _103  and  _105
REMARK   40  A    between atoms: _105  and  _106
REMARK   41  A    between atoms: _105  and  _108
REMARK   42  A    between atoms: _108  and  _109
REMARK   43  A    between atoms: _109  and  _111
REMARK   44  A    between atoms: _111  and  ZN_362
REMARK   45  A    between atoms: _112  and  _114
REMARK   46  A    between atoms: _114  and  _115
REMARK   47  A    between atoms: _114  and  _117
REMARK   48  A    between atoms: _117  and  _118
REMARK   49  A    between atoms: _118  and  _119
REMARK   50  A    between atoms: _119  and  _120
REMARK   51  A    between atoms: _129  and  _131
REMARK   52  A    between atoms: _131  and  _132
REMARK   53  A    between atoms: _131  and  _134
REMARK   54  A    between atoms: _134  and  _135
REMARK   55  A    between atoms: _138  and  _140
REMARK   56  A    between atoms: _140  and  _141
REMARK   57  A    between atoms: _140  and  _143
REMARK   58  A    between atoms: _143  and  _144
REMARK   59  A    between atoms: _150  and  _152
REMARK   60  A    between atoms: _152  and  _153
REMARK   61  A    between atoms: _152  and  _155
REMARK   62  A    between atoms: _155  and  _156
REMARK   63  A    between atoms: _159  and  _161
REMARK   64  A    between atoms: _161  and  _162
REMARK   65  A    between atoms: _164  and  _166
REMARK   66  A    between atoms: _166  and  _167
REMARK   67  A    between atoms: _166  and  _169
REMARK   68  A    between atoms: _169  and  _170
REMARK   69  A    between atoms: _173  and  _175
REMARK   70  A    between atoms: _175  and  _176
REMARK   71  A    between atoms: _175  and  _178
REMARK   72  A    between atoms: _178  and  _179
REMARK   73  A    between atoms: _184  and  _186
REMARK   74  A    between atoms: _186  and  _187
REMARK   75  A    between atoms: _186  and  _189
REMARK   76  A    between atoms: _189  and  _190
REMARK   77  A    between atoms: _193  and  _195
REMARK   78  A    between atoms: _195  and  _196
REMARK   79  A    between atoms: _195  and  _198
REMARK   80  A    between atoms: _198  and  _199
REMARK   81  A    between atoms: _204  and  _206
REMARK   82  A    between atoms: _206  and  _207
REMARK   83  A    between atoms: _206  and  _209
REMARK   84  A    between atoms: _209  and  _210
REMARK   85  A    between atoms: _210  and  ZN_362
REMARK   86  A    between atoms: _211  and  _213
REMARK   87  A    between atoms: _213  and  _214
REMARK   88  A    between atoms: _213  and  _216
REMARK   89  A    between atoms: _216  and  _217
REMARK   90  A    between atoms: _220  and  _222
REMARK   91  A    between atoms: _222  and  _223
REMARK   92  A    between atoms: _222  and  _225
REMARK   93  A    between atoms: _225  and  _226
REMARK   94  A    between atoms: _229  and  _231
REMARK   95  A    between atoms: _231  and  _232
REMARK   96  A    between atoms: _231  and  _234
REMARK   97  A    between atoms: _234  and  _235
REMARK   98  A    between atoms: _235  and  _236
REMARK   99  A    between atoms: _236  and  _237
REMARK  100  A    between atoms: _237  and  _238
REMARK  101  A    between atoms: _242  and  _244
REMARK  102  A    between atoms: _244  and  _245
REMARK  103  A    between atoms: _244  and  _247
REMARK  104  A    between atoms: _247  and  _248
REMARK  105  A    between atoms: _248  and  _249
REMARK  106  A    between atoms: _249  and  _250
REMARK  107  A    between atoms: _250  and  _251
REMARK  108  A    between atoms: _255  and  _257
REMARK  109  A    between atoms: _257  and  _258
REMARK  110  A    between atoms: _257  and  _260
REMARK  111  A    between atoms: _260  and  _261
REMARK  112  A    between atoms: _264  and  _266
REMARK  113  A    between atoms: _266  and  _267
REMARK  114  A    between atoms: _269  and  _271
REMARK  115  A    between atoms: _271  and  _272
REMARK  116  A    between atoms: _271  and  _274
REMARK  117  A    between atoms: _274  and  _275
REMARK  118  A    between atoms: _280  and  _282
REMARK  119  A    between atoms: _282  and  _283
REMARK  120  A    between atoms: _282  and  _285
REMARK  121  A    between atoms: _285  and  _286
REMARK  122  A    between atoms: _289  and  _291
REMARK  123  A    between atoms: _291  and  _292
REMARK  124  A    between atoms: _291  and  _294
REMARK  125  A    between atoms: _294  and  _295
REMARK  126  A    between atoms: _297  and  _299
REMARK  127  A    between atoms: _299  and  _300
REMARK  128  A    between atoms: _299  and  _302
REMARK  129  A    between atoms: _302  and  _303
REMARK  130  A    between atoms: _309  and  _311
REMARK  131  A    between atoms: _311  and  _312
REMARK  132  A    between atoms: _311  and  _314
REMARK  133  A    between atoms: _314  and  _315
REMARK  134  A    between atoms: _320  and  _321
REMARK  135  A    between atoms: _323  and  _325
REMARK  136  A    between atoms: _325  and  _326
REMARK  137  A    between atoms: _328  and  _330
REMARK  138  A    between atoms: _330  and  _331
REMARK  139  A    between atoms: _330  and  _333
REMARK  140  A    between atoms: _333  and  _334
REMARK  141  A    between atoms: _338  and  ZN_362
REMARK  142  A    between atoms: _339  and  _341
REMARK  143  A    between atoms: _341  and  _342
REMARK  144  A    between atoms: _341  and  _344
REMARK  145  A    between atoms: _344  and  _345
REMARK  146  A    between atoms: _348  and  _350
REMARK  147  A    between atoms: _350  and  _351
REMARK  148  A    between atoms: _350  and  _353
REMARK  149  A    between atoms: _353  and  _354
REMARK  150  A    between atoms: _359  and  _360
REMARK                            x       y       z     vdW  Elec       q    Type
REMARK                         _______ _______ _______ _____ _____    ______ ____
ROOT
ATOM      1  O   HOH     1      17.211  52.013  62.630  0.00  0.00    +0.000 OA
ENDROOT
TORSDOF 0
REMARK  Name = ../refined-set-2016/2gkl/2gkl_pocket.pdb
REMARK  150 active torsions:
REMARK  status: ('A' for Active; 'I' for Inactive)
REMARK    1  A    between atoms: _1  and  _3
REMARK    2  A    between atoms: _3  and  _4
REMARK    3  A    between atoms: _3  and  _6
REMARK    4  A    between atoms: _6  and  _7
REMARK    5  A    between atoms: _12  and  _13
REMARK    6  A    between atoms: _15  and  _17
REMARK    7  A    between atoms: _17  and  _18
REMARK    8  A    between atoms: _17  and  _20
REMARK    9  A    between atoms: _23  and  _25
REMARK   10  A    between atoms: _25  and  _26
REMARK   11  A    between atoms: _25  and  _28
REMARK   12  A    between atoms: _28  and  _29
REMARK   13  A    between atoms: _29  and  _30
REMARK   14  A    between atoms: _35  and  _37
REMARK   15  A    between atoms: _37  and  _38
REMARK   16  A    between atoms: _37  and  _40
REMARK   17  A    between atoms: _40  and  _41
REMARK   18  A    between atoms: _41  and  _42
REMARK   19  A    between atoms: _45  and  _47
REMARK   20  A    between atoms: _47  and  _48
REMARK   21  A    between atoms: _47  and  _50
REMARK   22  A    between atoms: _50  and  _51
REMARK   23  A    between atoms: _56  and  _58
REMARK   24  A    between atoms: _58  and  _59
REMARK   25  A    between atoms: _58  and  _61
REMARK   26  A    between atoms: _61  and  _62
REMARK   27  A    between atoms: _72  and  _74
REMARK   28  A    between atoms: _74  and  _75
REMARK   29  A    between atoms: _74  and  _77
REMARK   30  A    between atoms: _77  and  _78
REMARK   31  A    between atoms: _83  and  _85
REMARK   32  A    between atoms: _85  and  _86
REMARK   33  A    between atoms: _85  and  _88
REMARK   34  A    between atoms: _88  and  _89
REMARK   35  A    between atoms: _94  and  _96
REMARK   36  A    between atoms: _96  and  _97
REMARK   37  A    between atoms: _96  and  _99
REMARK   38  A    between atoms: _99  and  _100
REMARK   39  A    between atoms: _103  and  _105
REMARK   40  A    between atoms: _105  and  _106
REMARK   41  A    between atoms: _105  and  _108
REMARK   42  A    between atoms: _108  and  _109
REMARK   43  A    between atoms: _109  and  _111
REMARK   44  A    between atoms: _111  and  ZN_362
REMARK   45  A    between atoms: _112  and  _114
REMARK   46  A    between atoms: _114  and  _115
REMARK   47  A    between atoms: _114  and  _117
REMARK   48  A    between atoms: _117  and  _118
REMARK   49  A    between atoms: _118  and  _119
REMARK   50  A    between atoms: _119  and  _120
REMARK   51  A    between atoms: _129  and  _131
REMARK   52  A    between atoms: _131  and  _132
REMARK   53  A    between atoms: _131  and  _134
REMARK   54  A    between atoms: _134  and  _135
REMARK   55  A    between atoms: _138  and  _140
REMARK   56  A    between atoms: _140  and  _141
REMARK   57  A    between atoms: _140  and  _143
REMARK   58  A    between atoms: _143  and  _144
REMARK   59  A    between atoms: _150  and  _152
REMARK   60  A    between atoms: _152  and  _153
REMARK   61  A    between atoms: _152  and  _155
REMARK   62  A    between atoms: _155  and  _156
REMARK   63  A    between atoms: _159  and  _161
REMARK   64  A    between atoms: _161  and  _162
REMARK   65  A    between atoms: _164  and  _166
REMARK   66  A    between atoms: _166  and  _167
REMARK   67  A    between atoms: _166  and  _169
REMARK   68  A    between atoms: _169  and  _170
REMARK   69  A    between atoms: _173  and  _175
REMARK   70  A    between atoms: _175  and  _176
REMARK   71  A    between atoms: _175  and  _178
REMARK   72  A    between atoms: _178  and  _179
REMARK   73  A    between atoms: _184  and  _186
REMARK   74  A    between atoms: _186  and  _187
REMARK   75  A    between atoms: _186  and  _189
REMARK   76  A    between atoms: _189  and  _190
REMARK   77  A    between atoms: _193  and  _195
REMARK   78  A    between atoms: _195  and  _196
REMARK   79  A    between atoms: _195  and  _198
REMARK   80  A    between atoms: _198  and  _199
REMARK   81  A    between atoms: _204  and  _206
REMARK   82  A    between atoms: _206  and  _207
REMARK   83  A    between atoms: _206  and  _209
REMARK   84  A    between atoms: _209  and  _210
REMARK   85  A    between atoms: _210  and  ZN_362
REMARK   86  A    between atoms: _211  and  _213
REMARK   87  A    between atoms: _213  and  _214
REMARK   88  A    between atoms: _213  and  _216
REMARK   89  A    between atoms: _216  and  _217
REMARK   90  A    between atoms: _220  and  _222
REMARK   91  A    between atoms: _222  and  _223
REMARK   92  A    between atoms: _222  and  _225
REMARK   93  A    between atoms: _225  and  _226
REMARK   94  A    between atoms: _229  and  _231
REMARK   95  A    between atoms: _231  and  _232
REMARK   96  A    between atoms: _231  and  _234
REMARK   97  A    between atoms: _234  and  _235
REMARK   98  A    between atoms: _235  and  _236
REMARK   99  A    between atoms: _236  and  _237
REMARK  100  A    between atoms: _237  and  _238
REMARK  101  A    between atoms: _242  and  _244
REMARK  102  A    between atoms: _244  and  _245
REMARK  103  A    between atoms: _244  and  _247
REMARK  104  A    between atoms: _247  and  _248
REMARK  105  A    between atoms: _248  and  _249
REMARK  106  A    between atoms: _249  and  _250
REMARK  107  A    between atoms: _250  and  _251
REMARK  108  A    between atoms: _255  and  _257
REMARK  109  A    between atoms: _257  and  _258
REMARK  110  A    between atoms: _257  and  _260
REMARK  111  A    between atoms: _260  and  _261
REMARK  112  A    between atoms: _264  and  _266
REMARK  113  A    between atoms: _266  and  _267
REMARK  114  A    between atoms: _269  and  _271
REMARK  115  A    between atoms: _271  and  _272
REMARK  116  A    between atoms: _271  and  _274
REMARK  117  A    between atoms: _274  and  _275
REMARK  118  A    between atoms: _280  and  _282
REMARK  119  A    between atoms: _282  and  _283
REMARK  120  A    between atoms: _282  and  _285
REMARK  121  A    between atoms: _285  and  _286
REMARK  122  A    between atoms: _289  and  _291
REMARK  123  A    between atoms: _291  and  _292
REMARK  124  A    between atoms: _291  and  _294
REMARK  125  A    between atoms: _294  and  _295
REMARK  126  A    between atoms: _297  and  _299
REMARK  127  A    between atoms: _299  and  _300
REMARK  128  A    between atoms: _299  and  _302
REMARK  129  A    between atoms: _302  and  _303
REMARK  130  A    between atoms: _309  and  _311
REMARK  131  A    between atoms: _311  and  _312
REMARK  132  A    between atoms: _311  and  _314
REMARK  133  A    between atoms: _314  and  _315
REMARK  134  A    between atoms: _320  and  _321
REMARK  135  A    between atoms: _323  and  _325
REMARK  136  A    between atoms: _325  and  _326
REMARK  137  A    between atoms: _328  and  _330
REMARK  138  A    between atoms: _330  and  _331
REMARK  139  A    between atoms: _330  and  _333
REMARK  140  A    between atoms: _333  and  _334
REMARK  141  A    between atoms: _338  and  ZN_362
REMARK  142  A    between atoms: _339  and  _341
REMARK  143  A    between atoms: _341  and  _342
REMARK  144  A    between atoms: _341  and  _344
REMARK  145  A    between atoms: _344  and  _345
REMARK  146  A    between atoms: _348  and  _350
REMARK  147  A    between atoms: _350  and  _351
REMARK  148  A    between atoms: _350  and  _353
REMARK  149  A    between atoms: _353  and  _354
REMARK  150  A    between atoms: _359  and  _360
REMARK                            x       y       z     vdW  Elec       q    Type
REMARK                         _______ _______ _______ _____ _____    ______ ____
ROOT
ATOM      1  O   HOH     1      21.438  44.944  63.599  0.00  0.00    +0.000 OA
ENDROOT
TORSDOF 0
REMARK  Name = ../refined-set-2016/2gkl/2gkl_pocket.pdb
REMARK  150 active torsions:
REMARK  status: ('A' for Active; 'I' for Inactive)
REMARK    1  A    between atoms: _1  and  _3
REMARK    2  A    between atoms: _3  and  _4
REMARK    3  A    between atoms: _3  and  _6
REMARK    4  A    between atoms: _6  and  _7
REMARK    5  A    between atoms: _12  and  _13
REMARK    6  A    between atoms: _15  and  _17
REMARK    7  A    between atoms: _17  and  _18
REMARK    8  A    between atoms: _17  and  _20
REMARK    9  A    between atoms: _23  and  _25
REMARK   10  A    between atoms: _25  and  _26
REMARK   11  A    between atoms: _25  and  _28
REMARK   12  A    between atoms: _28  and  _29
REMARK   13  A    between atoms: _29  and  _30
REMARK   14  A    between atoms: _35  and  _37
REMARK   15  A    between atoms: _37  and  _38
REMARK   16  A    between atoms: _37  and  _40
REMARK   17  A    between atoms: _40  and  _41
REMARK   18  A    between atoms: _41  and  _42
REMARK   19  A    between atoms: _45  and  _47
REMARK   20  A    between atoms: _47  and  _48
REMARK   21  A    between atoms: _47  and  _50
REMARK   22  A    between atoms: _50  and  _51
REMARK   23  A    between atoms: _56  and  _58
REMARK   24  A    between atoms: _58  and  _59
REMARK   25  A    between atoms: _58  and  _61
REMARK   26  A    between atoms: _61  and  _62
REMARK   27  A    between atoms: _72  and  _74
REMARK   28  A    between atoms: _74  and  _75
REMARK   29  A    between atoms: _74  and  _77
REMARK   30  A    between atoms: _77  and  _78
REMARK   31  A    between atoms: _83  and  _85
REMARK   32  A    between atoms: _85  and  _86
REMARK   33  A    between atoms: _85  and  _88
REMARK   34  A    between atoms: _88  and  _89
REMARK   35  A    between atoms: _94  and  _96
REMARK   36  A    between atoms: _96  and  _97
REMARK   37  A    between atoms: _96  and  _99
REMARK   38  A    between atoms: _99  and  _100
REMARK   39  A    between atoms: _103  and  _105
REMARK   40  A    between atoms: _105  and  _106
REMARK   41  A    between atoms: _105  and  _108
REMARK   42  A    between atoms: _108  and  _109
REMARK   43  A    between atoms: _109  and  _111
REMARK   44  A    between atoms: _111  and  ZN_362
REMARK   45  A    between atoms: _112  and  _114
REMARK   46  A    between atoms: _114  and  _115
REMARK   47  A    between atoms: _114  and  _117
REMARK   48  A    between atoms: _117  and  _118
REMARK   49  A    between atoms: _118  and  _119
REMARK   50  A    between atoms: _119  and  _120
REMARK   51  A    between atoms: _129  and  _131
REMARK   52  A    between atoms: _131  and  _132
REMARK   53  A    between atoms: _131  and  _134
REMARK   54  A    between atoms: _134  and  _135
REMARK   55  A    between atoms: _138  and  _140
REMARK   56  A    between atoms: _140  and  _141
REMARK   57  A    between atoms: _140  and  _143
REMARK   58  A    between atoms: _143  and  _144
REMARK   59  A    between atoms: _150  and  _152
REMARK   60  A    between atoms: _152  and  _153
REMARK   61  A    between atoms: _152  and  _155
REMARK   62  A    between atoms: _155  and  _156
REMARK   63  A    between atoms: _159  and  _161
REMARK   64  A    between atoms: _161  and  _162
REMARK   65  A    between atoms: _164  and  _166
REMARK   66  A    between atoms: _166  and  _167
REMARK   67  A    between atoms: _166  and  _169
REMARK   68  A    between atoms: _169  and  _170
REMARK   69  A    between atoms: _173  and  _175
REMARK   70  A    between atoms: _175  and  _176
REMARK   71  A    between atoms: _175  and  _178
REMARK   72  A    between atoms: _178  and  _179
REMARK   73  A    between atoms: _184  and  _186
REMARK   74  A    between atoms: _186  and  _187
REMARK   75  A    between atoms: _186  and  _189
REMARK   76  A    between atoms: _189  and  _190
REMARK   77  A    between atoms: _193  and  _195
REMARK   78  A    between atoms: _195  and  _196
REMARK   79  A    between atoms: _195  and  _198
REMARK   80  A    between atoms: _198  and  _199
REMARK   81  A    between atoms: _204  and  _206
REMARK   82  A    between atoms: _206  and  _207
REMARK   83  A    between atoms: _206  and  _209
REMARK   84  A    between atoms: _209  and  _210
REMARK   85  A    between atoms: _210  and  ZN_362
REMARK   86  A    between atoms: _211  and  _213
REMARK   87  A    between atoms: _213  and  _214
REMARK   88  A    between atoms: _213  and  _216
REMARK   89  A    between atoms: _216  and  _217
REMARK   90  A    between atoms: _220  and  _222
REMARK   91  A    between atoms: _222  and  _223
REMARK   92  A    between atoms: _222  and  _225
REMARK   93  A    between atoms: _225  and  _226
REMARK   94  A    between atoms: _229  and  _231
REMARK   95  A    between atoms: _231  and  _232
REMARK   96  A    between atoms: _231  and  _234
REMARK   97  A    between atoms: _234  and  _235
REMARK   98  A    between atoms: _235  and  _236
REMARK   99  A    between atoms: _236  and  _237
REMARK  100  A    between atoms: _237  and  _238
REMARK  101  A    between atoms: _242  and  _244
REMARK  102  A    between atoms: _244  and  _245
REMARK  103  A    between atoms: _244  and  _247
REMARK  104  A    between atoms: _247  and  _248
REMARK  105  A    between atoms: _248  and  _249
REMARK  106  A    between atoms: _249  and  _250
REMARK  107  A    between atoms: _250  and  _251
REMARK  108  A    between atoms: _255  and  _257
REMARK  109  A    between atoms: _257  and  _258
REMARK  110  A    between atoms: _257  and  _260
REMARK  111  A    between atoms: _260  and  _261
REMARK  112  A    between atoms: _264  and  _266
REMARK  113  A    between atoms: _266  and  _267
REMARK  114  A    between atoms: _269  and  _271
REMARK  115  A    between atoms: _271  and  _272
REMARK  116  A    between atoms: _271  and  _274
REMARK  117  A    between atoms: _274  and  _275
REMARK  118  A    between atoms: _280  and  _282
REMARK  119  A    between atoms: _282  and  _283
REMARK  120  A    between atoms: _282  and  _285
REMARK  121  A    between atoms: _285  and  _286
REMARK  122  A    between atoms: _289  and  _291
REMARK  123  A    between atoms: _291  and  _292
REMARK  124  A    between atoms: _291  and  _294
REMARK  125  A    between atoms: _294  and  _295
REMARK  126  A    between atoms: _297  and  _299
REMARK  127  A    between atoms: _299  and  _300
REMARK  128  A    between atoms: _299  and  _302
REMARK  129  A    between atoms: _302  and  _303
REMARK  130  A    between atoms: _309  and  _311
REMARK  131  A    between atoms: _311  and  _312
REMARK  132  A    between atoms: _311  and  _314
REMARK  133  A    between atoms: _314  and  _315
REMARK  134  A    between atoms: _320  and  _321
REMARK  135  A    between atoms: _323  and  _325
REMARK  136  A    between atoms: _325  and  _326
REMARK  137  A    between atoms: _328  and  _330
REMARK  138  A    between atoms: _330  and  _331
REMARK  139  A    between atoms: _330  and  _333
REMARK  140  A    between atoms: _333  and  _334
REMARK  141  A    between atoms: _338  and  ZN_362
REMARK  142  A    between atoms: _339  and  _341
REMARK  143  A    between atoms: _341  and  _342
REMARK  144  A    between atoms: _341  and  _344
REMARK  145  A    between atoms: _344  and  _345
REMARK  146  A    between atoms: _348  and  _350
REMARK  147  A    between atoms: _350  and  _351
REMARK  148  A    between atoms: _350  and  _353
REMARK  149  A    between atoms: _353  and  _354
REMARK  150  A    between atoms: _359  and  _360
REMARK                            x       y       z     vdW  Elec       q    Type
REMARK                         _______ _______ _______ _____ _____    ______ ____
ROOT
ATOM      1  O   HOH     1      23.676  44.983  73.493  0.00  0.00    +0.000 OA
ENDROOT
TORSDOF 0
REMARK  Name = ../refined-set-2016/2gkl/2gkl_pocket.pdb
REMARK  150 active torsions:
REMARK  status: ('A' for Active; 'I' for Inactive)
REMARK    1  A    between atoms: _1  and  _3
REMARK    2  A    between atoms: _3  and  _4
REMARK    3  A    between atoms: _3  and  _6
REMARK    4  A    between atoms: _6  and  _7
REMARK    5  A    between atoms: _12  and  _13
REMARK    6  A    between atoms: _15  and  _17
REMARK    7  A    between atoms: _17  and  _18
REMARK    8  A    between atoms: _17  and  _20
REMARK    9  A    between atoms: _23  and  _25
REMARK   10  A    between atoms: _25  and  _26
REMARK   11  A    between atoms: _25  and  _28
REMARK   12  A    between atoms: _28  and  _29
REMARK   13  A    between atoms: _29  and  _30
REMARK   14  A    between atoms: _35  and  _37
REMARK   15  A    between atoms: _37  and  _38
REMARK   16  A    between atoms: _37  and  _40
REMARK   17  A    between atoms: _40  and  _41
REMARK   18  A    between atoms: _41  and  _42
REMARK   19  A    between atoms: _45  and  _47
REMARK   20  A    between atoms: _47  and  _48
REMARK   21  A    between atoms: _47  and  _50
REMARK   22  A    between atoms: _50  and  _51
REMARK   23  A    between atoms: _56  and  _58
REMARK   24  A    between atoms: _58  and  _59
REMARK   25  A    between atoms: _58  and  _61
REMARK   26  A    between atoms: _61  and  _62
REMARK   27  A    between atoms: _72  and  _74
REMARK   28  A    between atoms: _74  and  _75
REMARK   29  A    between atoms: _74  and  _77
REMARK   30  A    between atoms: _77  and  _78
REMARK   31  A    between atoms: _83  and  _85
REMARK   32  A    between atoms: _85  and  _86
REMARK   33  A    between atoms: _85  and  _88
REMARK   34  A    between atoms: _88  and  _89
REMARK   35  A    between atoms: _94  and  _96
REMARK   36  A    between atoms: _96  and  _97
REMARK   37  A    between atoms: _96  and  _99
REMARK   38  A    between atoms: _99  and  _100
REMARK   39  A    between atoms: _103  and  _105
REMARK   40  A    between atoms: _105  and  _106
REMARK   41  A    between atoms: _105  and  _108
REMARK   42  A    between atoms: _108  and  _109
REMARK   43  A    between atoms: _109  and  _111
REMARK   44  A    between atoms: _111  and  ZN_362
REMARK   45  A    between atoms: _112  and  _114
REMARK   46  A    between atoms: _114  and  _115
REMARK   47  A    between atoms: _114  and  _117
REMARK   48  A    between atoms: _117  and  _118
REMARK   49  A    between atoms: _118  and  _119
REMARK   50  A    between atoms: _119  and  _120
REMARK   51  A    between atoms: _129  and  _131
REMARK   52  A    between atoms: _131  and  _132
REMARK   53  A    between atoms: _131  and  _134
REMARK   54  A    between atoms: _134  and  _135
REMARK   55  A    between atoms: _138  and  _140
REMARK   56  A    between atoms: _140  and  _141
REMARK   57  A    between atoms: _140  and  _143
REMARK   58  A    between atoms: _143  and  _144
REMARK   59  A    between atoms: _150  and  _152
REMARK   60  A    between atoms: _152  and  _153
REMARK   61  A    between atoms: _152  and  _155
REMARK   62  A    between atoms: _155  and  _156
REMARK   63  A    between atoms: _159  and  _161
REMARK   64  A    between atoms: _161  and  _162
REMARK   65  A    between atoms: _164  and  _166
REMARK   66  A    between atoms: _166  and  _167
REMARK   67  A    between atoms: _166  and  _169
REMARK   68  A    between atoms: _169  and  _170
REMARK   69  A    between atoms: _173  and  _175
REMARK   70  A    between atoms: _175  and  _176
REMARK   71  A    between atoms: _175  and  _178
REMARK   72  A    between atoms: _178  and  _179
REMARK   73  A    between atoms: _184  and  _186
REMARK   74  A    between atoms: _186  and  _187
REMARK   75  A    between atoms: _186  and  _189
REMARK   76  A    between atoms: _189  and  _190
REMARK   77  A    between atoms: _193  and  _195
REMARK   78  A    between atoms: _195  and  _196
REMARK   79  A    between atoms: _195  and  _198
REMARK   80  A    between atoms: _198  and  _199
REMARK   81  A    between atoms: _204  and  _206
REMARK   82  A    between atoms: _206  and  _207
REMARK   83  A    between atoms: _206  and  _209
REMARK   84  A    between atoms: _209  and  _210
REMARK   85  A    between atoms: _210  and  ZN_362
REMARK   86  A    between atoms: _211  and  _213
REMARK   87  A    between atoms: _213  and  _214
REMARK   88  A    between atoms: _213  and  _216
REMARK   89  A    between atoms: _216  and  _217
REMARK   90  A    between atoms: _220  and  _222
REMARK   91  A    between atoms: _222  and  _223
REMARK   92  A    between atoms: _222  and  _225
REMARK   93  A    between atoms: _225  and  _226
REMARK   94  A    between atoms: _229  and  _231
REMARK   95  A    between atoms: _231  and  _232
REMARK   96  A    between atoms: _231  and  _234
REMARK   97  A    between atoms: _234  and  _235
REMARK   98  A    between atoms: _235  and  _236
REMARK   99  A    between atoms: _236  and  _237
REMARK  100  A    between atoms: _237  and  _238
REMARK  101  A    between atoms: _242  and  _244
REMARK  102  A    between atoms: _244  and  _245
REMARK  103  A    between atoms: _244  and  _247
REMARK  104  A    between atoms: _247  and  _248
REMARK  105  A    between atoms: _248  and  _249
REMARK  106  A    between atoms: _249  and  _250
REMARK  107  A    between atoms: _250  and  _251
REMARK  108  A    between atoms: _255  and  _257
REMARK  109  A    between atoms: _257  and  _258
REMARK  110  A    between atoms: _257  and  _260
REMARK  111  A    between atoms: _260  and  _261
REMARK  112  A    between atoms: _264  and  _266
REMARK  113  A    between atoms: _266  and  _267
REMARK  114  A    between atoms: _269  and  _271
REMARK  115  A    between atoms: _271  and  _272
REMARK  116  A    between atoms: _271  and  _274
REMARK  117  A    between atoms: _274  and  _275
REMARK  118  A    between atoms: _280  and  _282
REMARK  119  A    between atoms: _282  and  _283
REMARK  120  A    between atoms: _282  and  _285
REMARK  121  A    between atoms: _285  and  _286
REMARK  122  A    between atoms: _289  and  _291
REMARK  123  A    between atoms: _291  and  _292
REMARK  124  A    between atoms: _291  and  _294
REMARK  125  A    between atoms: _294  and  _295
REMARK  126  A    between atoms: _297  and  _299
REMARK  127  A    between atoms: _299  and  _300
REMARK  128  A    between atoms: _299  and  _302
REMARK  129  A    between atoms: _302  and  _303
REMARK  130  A    between atoms: _309  and  _311
REMARK  131  A    between atoms: _311  and  _312
REMARK  132  A    between atoms: _311  and  _314
REMARK  133  A    between atoms: _314  and  _315
REMARK  134  A    between atoms: _320  and  _321
REMARK  135  A    between atoms: _323  and  _325
REMARK  136  A    between atoms: _325  and  _326
REMARK  137  A    between atoms: _328  and  _330
REMARK  138  A    between atoms: _330  and  _331
REMARK  139  A    between atoms: _330  and  _333
REMARK  140  A    between atoms: _333  and  _334
REMARK  141  A    between atoms: _338  and  ZN_362
REMARK  142  A    between atoms: _339  and  _341
REMARK  143  A    between atoms: _341  and  _342
REMARK  144  A    between atoms: _341  and  _344
REMARK  145  A    between atoms: _344  and  _345
REMARK  146  A    between atoms: _348  and  _350
REMARK  147  A    between atoms: _350  and  _351
REMARK  148  A    between atoms: _350  and  _353
REMARK  149  A    between atoms: _353  and  _354
REMARK  150  A    between atoms: _359  and  _360
REMARK                            x       y       z     vdW  Elec       q    Type
REMARK                         _______ _______ _______ _____ _____    ______ ____
ROOT
ATOM      1  O   HOH     1      17.841  41.778  76.453  0.00  0.00    +0.000 OA
ENDROOT
TORSDOF 0
REMARK  Name = ../refined-set-2016/2gkl/2gkl_pocket.pdb
REMARK  150 active torsions:
REMARK  status: ('A' for Active; 'I' for Inactive)
REMARK    1  A    between atoms: _1  and  _3
REMARK    2  A    between atoms: _3  and  _4
REMARK    3  A    between atoms: _3  and  _6
REMARK    4  A    between atoms: _6  and  _7
REMARK    5  A    between atoms: _12  and  _13
REMARK    6  A    between atoms: _15  and  _17
REMARK    7  A    between atoms: _17  and  _18
REMARK    8  A    between atoms: _17  and  _20
REMARK    9  A    between atoms: _23  and  _25
REMARK   10  A    between atoms: _25  and  _26
REMARK   11  A    between atoms: _25  and  _28
REMARK   12  A    between atoms: _28  and  _29
REMARK   13  A    between atoms: _29  and  _30
REMARK   14  A    between atoms: _35  and  _37
REMARK   15  A    between atoms: _37  and  _38
REMARK   16  A    between atoms: _37  and  _40
REMARK   17  A    between atoms: _40  and  _41
REMARK   18  A    between atoms: _41  and  _42
REMARK   19  A    between atoms: _45  and  _47
REMARK   20  A    between atoms: _47  and  _48
REMARK   21  A    between atoms: _47  and  _50
REMARK   22  A    between atoms: _50  and  _51
REMARK   23  A    between atoms: _56  and  _58
REMARK   24  A    between atoms: _58  and  _59
REMARK   25  A    between atoms: _58  and  _61
REMARK   26  A    between atoms: _61  and  _62
REMARK   27  A    between atoms: _72  and  _74
REMARK   28  A    between atoms: _74  and  _75
REMARK   29  A    between atoms: _74  and  _77
REMARK   30  A    between atoms: _77  and  _78
REMARK   31  A    between atoms: _83  and  _85
REMARK   32  A    between atoms: _85  and  _86
REMARK   33  A    between atoms: _85  and  _88
REMARK   34  A    between atoms: _88  and  _89
REMARK   35  A    between atoms: _94  and  _96
REMARK   36  A    between atoms: _96  and  _97
REMARK   37  A    between atoms: _96  and  _99
REMARK   38  A    between atoms: _99  and  _100
REMARK   39  A    between atoms: _103  and  _105
REMARK   40  A    between atoms: _105  and  _106
REMARK   41  A    between atoms: _105  and  _108
REMARK   42  A    between atoms: _108  and  _109
REMARK   43  A    between atoms: _109  and  _111
REMARK   44  A    between atoms: _111  and  ZN_362
REMARK   45  A    between atoms: _112  and  _114
REMARK   46  A    between atoms: _114  and  _115
REMARK   47  A    between atoms: _114  and  _117
REMARK   48  A    between atoms: _117  and  _118
REMARK   49  A    between atoms: _118  and  _119
REMARK   50  A    between atoms: _119  and  _120
REMARK   51  A    between atoms: _129  and  _131
REMARK   52  A    between atoms: _131  and  _132
REMARK   53  A    between atoms: _131  and  _134
REMARK   54  A    between atoms: _134  and  _135
REMARK   55  A    between atoms: _138  and  _140
REMARK   56  A    between atoms: _140  and  _141
REMARK   57  A    between atoms: _140  and  _143
REMARK   58  A    between atoms: _143  and  _144
REMARK   59  A    between atoms: _150  and  _152
REMARK   60  A    between atoms: _152  and  _153
REMARK   61  A    between atoms: _152  and  _155
REMARK   62  A    between atoms: _155  and  _156
REMARK   63  A    between atoms: _159  and  _161
REMARK   64  A    between atoms: _161  and  _162
REMARK   65  A    between atoms: _164  and  _166
REMARK   66  A    between atoms: _166  and  _167
REMARK   67  A    between atoms: _166  and  _169
REMARK   68  A    between atoms: _169  and  _170
REMARK   69  A    between atoms: _173  and  _175
REMARK   70  A    between atoms: _175  and  _176
REMARK   71  A    between atoms: _175  and  _178
REMARK   72  A    between atoms: _178  and  _179
REMARK   73  A    between atoms: _184  and  _186
REMARK   74  A    between atoms: _186  and  _187
REMARK   75  A    between atoms: _186  and  _189
REMARK   76  A    between atoms: _189  and  _190
REMARK   77  A    between atoms: _193  and  _195
REMARK   78  A    between atoms: _195  and  _196
REMARK   79  A    between atoms: _195  and  _198
REMARK   80  A    between atoms: _198  and  _199
REMARK   81  A    between atoms: _204  and  _206
REMARK   82  A    between atoms: _206  and  _207
REMARK   83  A    between atoms: _206  and  _209
REMARK   84  A    between atoms: _209  and  _210
REMARK   85  A    between atoms: _210  and  ZN_362
REMARK   86  A    between atoms: _211  and  _213
REMARK   87  A    between atoms: _213  and  _214
REMARK   88  A    between atoms: _213  and  _216
REMARK   89  A    between atoms: _216  and  _217
REMARK   90  A    between atoms: _220  and  _222
REMARK   91  A    between atoms: _222  and  _223
REMARK   92  A    between atoms: _222  and  _225
REMARK   93  A    between atoms: _225  and  _226
REMARK   94  A    between atoms: _229  and  _231
REMARK   95  A    between atoms: _231  and  _232
REMARK   96  A    between atoms: _231  and  _234
REMARK   97  A    between atoms: _234  and  _235
REMARK   98  A    between atoms: _235  and  _236
REMARK   99  A    between atoms: _236  and  _237
REMARK  100  A    between atoms: _237  and  _238
REMARK  101  A    between atoms: _242  and  _244
REMARK  102  A    between atoms: _244  and  _245
REMARK  103  A    between atoms: _244  and  _247
REMARK  104  A    between atoms: _247  and  _248
REMARK  105  A    between atoms: _248  and  _249
REMARK  106  A    between atoms: _249  and  _250
REMARK  107  A    between atoms: _250  and  _251
REMARK  108  A    between atoms: _255  and  _257
REMARK  109  A    between atoms: _257  and  _258
REMARK  110  A    between atoms: _257  and  _260
REMARK  111  A    between atoms: _260  and  _261
REMARK  112  A    between atoms: _264  and  _266
REMARK  113  A    between atoms: _266  and  _267
REMARK  114  A    between atoms: _269  and  _271
REMARK  115  A    between atoms: _271  and  _272
REMARK  116  A    between atoms: _271  and  _274
REMARK  117  A    between atoms: _274  and  _275
REMARK  118  A    between atoms: _280  and  _282
REMARK  119  A    between atoms: _282  and  _283
REMARK  120  A    between atoms: _282  and  _285
REMARK  121  A    between atoms: _285  and  _286
REMARK  122  A    between atoms: _289  and  _291
REMARK  123  A    between atoms: _291  and  _292
REMARK  124  A    between atoms: _291  and  _294
REMARK  125  A    between atoms: _294  and  _295
REMARK  126  A    between atoms: _297  and  _299
REMARK  127  A    between atoms: _299  and  _300
REMARK  128  A    between atoms: _299  and  _302
REMARK  129  A    between atoms: _302  and  _303
REMARK  130  A    between atoms: _309  and  _311
REMARK  131  A    between atoms: _311  and  _312
REMARK  132  A    between atoms: _311  and  _314
REMARK  133  A    between atoms: _314  and  _315
REMARK  134  A    between atoms: _320  and  _321
REMARK  135  A    between atoms: _323  and  _325
REMARK  136  A    between atoms: _325  and  _326
REMARK  137  A    between atoms: _328  and  _330
REMARK  138  A    between atoms: _330  and  _331
REMARK  139  A    between atoms: _330  and  _333
REMARK  140  A    between atoms: _333  and  _334
REMARK  141  A    between atoms: _338  and  ZN_362
REMARK  142  A    between atoms: _339  and  _341
REMARK  143  A    between atoms: _341  and  _342
REMARK  144  A    between atoms: _341  and  _344
REMARK  145  A    between atoms: _344  and  _345
REMARK  146  A    between atoms: _348  and  _350
REMARK  147  A    between atoms: _350  and  _351
REMARK  148  A    between atoms: _350  and  _353
REMARK  149  A    between atoms: _353  and  _354
REMARK  150  A    between atoms: _359  and  _360
REMARK                            x       y       z     vdW  Elec       q    Type
REMARK                         _______ _______ _______ _____ _____    ______ ____
ROOT
ATOM      1  O   HOH     1      20.553  48.259  75.431  0.00  0.00    +0.000 OA
ENDROOT
TORSDOF 0
REMARK  Name = ../refined-set-2016/2gkl/2gkl_pocket.pdb
REMARK  150 active torsions:
REMARK  status: ('A' for Active; 'I' for Inactive)
REMARK    1  A    between atoms: _1  and  _3
REMARK    2  A    between atoms: _3  and  _4
REMARK    3  A    between atoms: _3  and  _6
REMARK    4  A    between atoms: _6  and  _7
REMARK    5  A    between atoms: _12  and  _13
REMARK    6  A    between atoms: _15  and  _17
REMARK    7  A    between atoms: _17  and  _18
REMARK    8  A    between atoms: _17  and  _20
REMARK    9  A    between atoms: _23  and  _25
REMARK   10  A    between atoms: _25  and  _26
REMARK   11  A    between atoms: _25  and  _28
REMARK   12  A    between atoms: _28  and  _29
REMARK   13  A    between atoms: _29  and  _30
REMARK   14  A    between atoms: _35  and  _37
REMARK   15  A    between atoms: _37  and  _38
REMARK   16  A    between atoms: _37  and  _40
REMARK   17  A    between atoms: _40  and  _41
REMARK   18  A    between atoms: _41  and  _42
REMARK   19  A    between atoms: _45  and  _47
REMARK   20  A    between atoms: _47  and  _48
REMARK   21  A    between atoms: _47  and  _50
REMARK   22  A    between atoms: _50  and  _51
REMARK   23  A    between atoms: _56  and  _58
REMARK   24  A    between atoms: _58  and  _59
REMARK   25  A    between atoms: _58  and  _61
REMARK   26  A    between atoms: _61  and  _62
REMARK   27  A    between atoms: _72  and  _74
REMARK   28  A    between atoms: _74  and  _75
REMARK   29  A    between atoms: _74  and  _77
REMARK   30  A    between atoms: _77  and  _78
REMARK   31  A    between atoms: _83  and  _85
REMARK   32  A    between atoms: _85  and  _86
REMARK   33  A    between atoms: _85  and  _88
REMARK   34  A    between atoms: _88  and  _89
REMARK   35  A    between atoms: _94  and  _96
REMARK   36  A    between atoms: _96  and  _97
REMARK   37  A    between atoms: _96  and  _99
REMARK   38  A    between atoms: _99  and  _100
REMARK   39  A    between atoms: _103  and  _105
REMARK   40  A    between atoms: _105  and  _106
REMARK   41  A    between atoms: _105  and  _108
REMARK   42  A    between atoms: _108  and  _109
REMARK   43  A    between atoms: _109  and  _111
REMARK   44  A    between atoms: _111  and  ZN_362
REMARK   45  A    between atoms: _112  and  _114
REMARK   46  A    between atoms: _114  and  _115
REMARK   47  A    between atoms: _114  and  _117
REMARK   48  A    between atoms: _117  and  _118
REMARK   49  A    between atoms: _118  and  _119
REMARK   50  A    between atoms: _119  and  _120
REMARK   51  A    between atoms: _129  and  _131
REMARK   52  A    between atoms: _131  and  _132
REMARK   53  A    between atoms: _131  and  _134
REMARK   54  A    between atoms: _134  and  _135
REMARK   55  A    between atoms: _138  and  _140
REMARK   56  A    between atoms: _140  and  _141
REMARK   57  A    between atoms: _140  and  _143
REMARK   58  A    between atoms: _143  and  _144
REMARK   59  A    between atoms: _150  and  _152
REMARK   60  A    between atoms: _152  and  _153
REMARK   61  A    between atoms: _152  and  _155
REMARK   62  A    between atoms: _155  and  _156
REMARK   63  A    between atoms: _159  and  _161
REMARK   64  A    between atoms: _161  and  _162
REMARK   65  A    between atoms: _164  and  _166
REMARK   66  A    between atoms: _166  and  _167
REMARK   67  A    between atoms: _166  and  _169
REMARK   68  A    between atoms: _169  and  _170
REMARK   69  A    between atoms: _173  and  _175
REMARK   70  A    between atoms: _175  and  _176
REMARK   71  A    between atoms: _175  and  _178
REMARK   72  A    between atoms: _178  and  _179
REMARK   73  A    between atoms: _184  and  _186
REMARK   74  A    between atoms: _186  and  _187
REMARK   75  A    between atoms: _186  and  _189
REMARK   76  A    between atoms: _189  and  _190
REMARK   77  A    between atoms: _193  and  _195
REMARK   78  A    between atoms: _195  and  _196
REMARK   79  A    between atoms: _195  and  _198
REMARK   80  A    between atoms: _198  and  _199
REMARK   81  A    between atoms: _204  and  _206
REMARK   82  A    between atoms: _206  and  _207
REMARK   83  A    between atoms: _206  and  _209
REMARK   84  A    between atoms: _209  and  _210
REMARK   85  A    between atoms: _210  and  ZN_362
REMARK   86  A    between atoms: _211  and  _213
REMARK   87  A    between atoms: _213  and  _214
REMARK   88  A    between atoms: _213  and  _216
REMARK   89  A    between atoms: _216  and  _217
REMARK   90  A    between atoms: _220  and  _222
REMARK   91  A    between atoms: _222  and  _223
REMARK   92  A    between atoms: _222  and  _225
REMARK   93  A    between atoms: _225  and  _226
REMARK   94  A    between atoms: _229  and  _231
REMARK   95  A    between atoms: _231  and  _232
REMARK   96  A    between atoms: _231  and  _234
REMARK   97  A    between atoms: _234  and  _235
REMARK   98  A    between atoms: _235  and  _236
REMARK   99  A    between atoms: _236  and  _237
REMARK  100  A    between atoms: _237  and  _238
REMARK  101  A    between atoms: _242  and  _244
REMARK  102  A    between atoms: _244  and  _245
REMARK  103  A    between atoms: _244  and  _247
REMARK  104  A    between atoms: _247  and  _248
REMARK  105  A    between atoms: _248  and  _249
REMARK  106  A    between atoms: _249  and  _250
REMARK  107  A    between atoms: _250  and  _251
REMARK  108  A    between atoms: _255  and  _257
REMARK  109  A    between atoms: _257  and  _258
REMARK  110  A    between atoms: _257  and  _260
REMARK  111  A    between atoms: _260  and  _261
REMARK  112  A    between atoms: _264  and  _266
REMARK  113  A    between atoms: _266  and  _267
REMARK  114  A    between atoms: _269  and  _271
REMARK  115  A    between atoms: _271  and  _272
REMARK  116  A    between atoms: _271  and  _274
REMARK  117  A    between atoms: _274  and  _275
REMARK  118  A    between atoms: _280  and  _282
REMARK  119  A    between atoms: _282  and  _283
REMARK  120  A    between atoms: _282  and  _285
REMARK  121  A    between atoms: _285  and  _286
REMARK  122  A    between atoms: _289  and  _291
REMARK  123  A    between atoms: _291  and  _292
REMARK  124  A    between atoms: _291  and  _294
REMARK  125  A    between atoms: _294  and  _295
REMARK  126  A    between atoms: _297  and  _299
REMARK  127  A    between atoms: _299  and  _300
REMARK  128  A    between atoms: _299  and  _302
REMARK  129  A    between atoms: _302  and  _303
REMARK  130  A    between atoms: _309  and  _311
REMARK  131  A    between atoms: _311  and  _312
REMARK  132  A    between atoms: _311  and  _314
REMARK  133  A    between atoms: _314  and  _315
REMARK  134  A    between atoms: _320  and  _321
REMARK  135  A    between atoms: _323  and  _325
REMARK  136  A    between atoms: _325  and  _326
REMARK  137  A    between atoms: _328  and  _330
REMARK  138  A    between atoms: _330  and  _331
REMARK  139  A    between atoms: _330  and  _333
REMARK  140  A    between atoms: _333  and  _334
REMARK  141  A    between atoms: _338  and  ZN_362
REMARK  142  A    between atoms: _339  and  _341
REMARK  143  A    between atoms: _341  and  _342
REMARK  144  A    between atoms: _341  and  _344
REMARK  145  A    between atoms: _344  and  _345
REMARK  146  A    between atoms: _348  and  _350
REMARK  147  A    between atoms: _350  and  _351
REMARK  148  A    between atoms: _350  and  _353
REMARK  149  A    between atoms: _353  and  _354
REMARK  150  A    between atoms: _359  and  _360
REMARK                            x       y       z     vdW  Elec       q    Type
REMARK                         _______ _______ _______ _____ _____    ______ ____
ROOT
ATOM      1  O   HOH     1      19.965  43.097  62.547  0.00  0.00    +0.000 OA
ENDROOT
TORSDOF 0
REMARK  Name = ../refined-set-2016/2gkl/2gkl_pocket.pdb
REMARK  150 active torsions:
REMARK  status: ('A' for Active; 'I' for Inactive)
REMARK    1  A    between atoms: _1  and  _3
REMARK    2  A    between atoms: _3  and  _4
REMARK    3  A    between atoms: _3  and  _6
REMARK    4  A    between atoms: _6  and  _7
REMARK    5  A    between atoms: _12  and  _13
REMARK    6  A    between atoms: _15  and  _17
REMARK    7  A    between atoms: _17  and  _18
REMARK    8  A    between atoms: _17  and  _20
REMARK    9  A    between atoms: _23  and  _25
REMARK   10  A    between atoms: _25  and  _26
REMARK   11  A    between atoms: _25  and  _28
REMARK   12  A    between atoms: _28  and  _29
REMARK   13  A    between atoms: _29  and  _30
REMARK   14  A    between atoms: _35  and  _37
REMARK   15  A    between atoms: _37  and  _38
REMARK   16  A    between atoms: _37  and  _40
REMARK   17  A    between atoms: _40  and  _41
REMARK   18  A    between atoms: _41  and  _42
REMARK   19  A    between atoms: _45  and  _47
REMARK   20  A    between atoms: _47  and  _48
REMARK   21  A    between atoms: _47  and  _50
REMARK   22  A    between atoms: _50  and  _51
REMARK   23  A    between atoms: _56  and  _58
REMARK   24  A    between atoms: _58  and  _59
REMARK   25  A    between atoms: _58  and  _61
REMARK   26  A    between atoms: _61  and  _62
REMARK   27  A    between atoms: _72  and  _74
REMARK   28  A    between atoms: _74  and  _75
REMARK   29  A    between atoms: _74  and  _77
REMARK   30  A    between atoms: _77  and  _78
REMARK   31  A    between atoms: _83  and  _85
REMARK   32  A    between atoms: _85  and  _86
REMARK   33  A    between atoms: _85  and  _88
REMARK   34  A    between atoms: _88  and  _89
REMARK   35  A    between atoms: _94  and  _96
REMARK   36  A    between atoms: _96  and  _97
REMARK   37  A    between atoms: _96  and  _99
REMARK   38  A    between atoms: _99  and  _100
REMARK   39  A    between atoms: _103  and  _105
REMARK   40  A    between atoms: _105  and  _106
REMARK   41  A    between atoms: _105  and  _108
REMARK   42  A    between atoms: _108  and  _109
REMARK   43  A    between atoms: _109  and  _111
REMARK   44  A    between atoms: _111  and  ZN_362
REMARK   45  A    between atoms: _112  and  _114
REMARK   46  A    between atoms: _114  and  _115
REMARK   47  A    between atoms: _114  and  _117
REMARK   48  A    between atoms: _117  and  _118
REMARK   49  A    between atoms: _118  and  _119
REMARK   50  A    between atoms: _119  and  _120
REMARK   51  A    between atoms: _129  and  _131
REMARK   52  A    between atoms: _131  and  _132
REMARK   53  A    between atoms: _131  and  _134
REMARK   54  A    between atoms: _134  and  _135
REMARK   55  A    between atoms: _138  and  _140
REMARK   56  A    between atoms: _140  and  _141
REMARK   57  A    between atoms: _140  and  _143
REMARK   58  A    between atoms: _143  and  _144
REMARK   59  A    between atoms: _150  and  _152
REMARK   60  A    between atoms: _152  and  _153
REMARK   61  A    between atoms: _152  and  _155
REMARK   62  A    between atoms: _155  and  _156
REMARK   63  A    between atoms: _159  and  _161
REMARK   64  A    between atoms: _161  and  _162
REMARK   65  A    between atoms: _164  and  _166
REMARK   66  A    between atoms: _166  and  _167
REMARK   67  A    between atoms: _166  and  _169
REMARK   68  A    between atoms: _169  and  _170
REMARK   69  A    between atoms: _173  and  _175
REMARK   70  A    between atoms: _175  and  _176
REMARK   71  A    between atoms: _175  and  _178
REMARK   72  A    between atoms: _178  and  _179
REMARK   73  A    between atoms: _184  and  _186
REMARK   74  A    between atoms: _186  and  _187
REMARK   75  A    between atoms: _186  and  _189
REMARK   76  A    between atoms: _189  and  _190
REMARK   77  A    between atoms: _193  and  _195
REMARK   78  A    between atoms: _195  and  _196
REMARK   79  A    between atoms: _195  and  _198
REMARK   80  A    between atoms: _198  and  _199
REMARK   81  A    between atoms: _204  and  _206
REMARK   82  A    between atoms: _206  and  _207
REMARK   83  A    between atoms: _206  and  _209
REMARK   84  A    between atoms: _209  and  _210
REMARK   85  A    between atoms: _210  and  ZN_362
REMARK   86  A    between atoms: _211  and  _213
REMARK   87  A    between atoms: _213  and  _214
REMARK   88  A    between atoms: _213  and  _216
REMARK   89  A    between atoms: _216  and  _217
REMARK   90  A    between atoms: _220  and  _222
REMARK   91  A    between atoms: _222  and  _223
REMARK   92  A    between atoms: _222  and  _225
REMARK   93  A    between atoms: _225  and  _226
REMARK   94  A    between atoms: _229  and  _231
REMARK   95  A    between atoms: _231  and  _232
REMARK   96  A    between atoms: _231  and  _234
REMARK   97  A    between atoms: _234  and  _235
REMARK   98  A    between atoms: _235  and  _236
REMARK   99  A    between atoms: _236  and  _237
REMARK  100  A    between atoms: _237  and  _238
REMARK  101  A    between atoms: _242  and  _244
REMARK  102  A    between atoms: _244  and  _245
REMARK  103  A    between atoms: _244  and  _247
REMARK  104  A    between atoms: _247  and  _248
REMARK  105  A    between atoms: _248  and  _249
REMARK  106  A    between atoms: _249  and  _250
REMARK  107  A    between atoms: _250  and  _251
REMARK  108  A    between atoms: _255  and  _257
REMARK  109  A    between atoms: _257  and  _258
REMARK  110  A    between atoms: _257  and  _260
REMARK  111  A    between atoms: _260  and  _261
REMARK  112  A    between atoms: _264  and  _266
REMARK  113  A    between atoms: _266  and  _267
REMARK  114  A    between atoms: _269  and  _271
REMARK  115  A    between atoms: _271  and  _272
REMARK  116  A    between atoms: _271  and  _274
REMARK  117  A    between atoms: _274  and  _275
REMARK  118  A    between atoms: _280  and  _282
REMARK  119  A    between atoms: _282  and  _283
REMARK  120  A    between atoms: _282  and  _285
REMARK  121  A    between atoms: _285  and  _286
REMARK  122  A    between atoms: _289  and  _291
REMARK  123  A    between atoms: _291  and  _292
REMARK  124  A    between atoms: _291  and  _294
REMARK  125  A    between atoms: _294  and  _295
REMARK  126  A    between atoms: _297  and  _299
REMARK  127  A    between atoms: _299  and  _300
REMARK  128  A    between atoms: _299  and  _302
REMARK  129  A    between atoms: _302  and  _303
REMARK  130  A    between atoms: _309  and  _311
REMARK  131  A    between atoms: _311  and  _312
REMARK  132  A    between atoms: _311  and  _314
REMARK  133  A    between atoms: _314  and  _315
REMARK  134  A    between atoms: _320  and  _321
REMARK  135  A    between atoms: _323  and  _325
REMARK  136  A    between atoms: _325  and  _326
REMARK  137  A    between atoms: _328  and  _330
REMARK  138  A    between atoms: _330  and  _331
REMARK  139  A    between atoms: _330  and  _333
REMARK  140  A    between atoms: _333  and  _334
REMARK  141  A    between atoms: _338  and  ZN_362
REMARK  142  A    between atoms: _339  and  _341
REMARK  143  A    between atoms: _341  and  _342
REMARK  144  A    between atoms: _341  and  _344
REMARK  145  A    between atoms: _344  and  _345
REMARK  146  A    between atoms: _348  and  _350
REMARK  147  A    between atoms: _350  and  _351
REMARK  148  A    between atoms: _350  and  _353
REMARK  149  A    between atoms: _353  and  _354
REMARK  150  A    between atoms: _359  and  _360
REMARK                            x       y       z     vdW  Elec       q    Type
REMARK                         _______ _______ _______ _____ _____    ______ ____
ROOT
ATOM      1  O   HOH     1      14.494  52.769  66.756  0.00  0.00    +0.000 OA
ENDROOT
TORSDOF 0
REMARK  Name = ../refined-set-2016/2gkl/2gkl_pocket.pdb
REMARK  150 active torsions:
REMARK  status: ('A' for Active; 'I' for Inactive)
REMARK    1  A    between atoms: _1  and  _3
REMARK    2  A    between atoms: _3  and  _4
REMARK    3  A    between atoms: _3  and  _6
REMARK    4  A    between atoms: _6  and  _7
REMARK    5  A    between atoms: _12  and  _13
REMARK    6  A    between atoms: _15  and  _17
REMARK    7  A    between atoms: _17  and  _18
REMARK    8  A    between atoms: _17  and  _20
REMARK    9  A    between atoms: _23  and  _25
REMARK   10  A    between atoms: _25  and  _26
REMARK   11  A    between atoms: _25  and  _28
REMARK   12  A    between atoms: _28  and  _29
REMARK   13  A    between atoms: _29  and  _30
REMARK   14  A    between atoms: _35  and  _37
REMARK   15  A    between atoms: _37  and  _38
REMARK   16  A    between atoms: _37  and  _40
REMARK   17  A    between atoms: _40  and  _41
REMARK   18  A    between atoms: _41  and  _42
REMARK   19  A    between atoms: _45  and  _47
REMARK   20  A    between atoms: _47  and  _48
REMARK   21  A    between atoms: _47  and  _50
REMARK   22  A    between atoms: _50  and  _51
REMARK   23  A    between atoms: _56  and  _58
REMARK   24  A    between atoms: _58  and  _59
REMARK   25  A    between atoms: _58  and  _61
REMARK   26  A    between atoms: _61  and  _62
REMARK   27  A    between atoms: _72  and  _74
REMARK   28  A    between atoms: _74  and  _75
REMARK   29  A    between atoms: _74  and  _77
REMARK   30  A    between atoms: _77  and  _78
REMARK   31  A    between atoms: _83  and  _85
REMARK   32  A    between atoms: _85  and  _86
REMARK   33  A    between atoms: _85  and  _88
REMARK   34  A    between atoms: _88  and  _89
REMARK   35  A    between atoms: _94  and  _96
REMARK   36  A    between atoms: _96  and  _97
REMARK   37  A    between atoms: _96  and  _99
REMARK   38  A    between atoms: _99  and  _100
REMARK   39  A    between atoms: _103  and  _105
REMARK   40  A    between atoms: _105  and  _106
REMARK   41  A    between atoms: _105  and  _108
REMARK   42  A    between atoms: _108  and  _109
REMARK   43  A    between atoms: _109  and  _111
REMARK   44  A    between atoms: _111  and  ZN_362
REMARK   45  A    between atoms: _112  and  _114
REMARK   46  A    between atoms: _114  and  _115
REMARK   47  A    between atoms: _114  and  _117
REMARK   48  A    between atoms: _117  and  _118
REMARK   49  A    between atoms: _118  and  _119
REMARK   50  A    between atoms: _119  and  _120
REMARK   51  A    between atoms: _129  and  _131
REMARK   52  A    between atoms: _131  and  _132
REMARK   53  A    between atoms: _131  and  _134
REMARK   54  A    between atoms: _134  and  _135
REMARK   55  A    between atoms: _138  and  _140
REMARK   56  A    between atoms: _140  and  _141
REMARK   57  A    between atoms: _140  and  _143
REMARK   58  A    between atoms: _143  and  _144
REMARK   59  A    between atoms: _150  and  _152
REMARK   60  A    between atoms: _152  and  _153
REMARK   61  A    between atoms: _152  and  _155
REMARK   62  A    between atoms: _155  and  _156
REMARK   63  A    between atoms: _159  and  _161
REMARK   64  A    between atoms: _161  and  _162
REMARK   65  A    between atoms: _164  and  _166
REMARK   66  A    between atoms: _166  and  _167
REMARK   67  A    between atoms: _166  and  _169
REMARK   68  A    between atoms: _169  and  _170
REMARK   69  A    between atoms: _173  and  _175
REMARK   70  A    between atoms: _175  and  _176
REMARK   71  A    between atoms: _175  and  _178
REMARK   72  A    between atoms: _178  and  _179
REMARK   73  A    between atoms: _184  and  _186
REMARK   74  A    between atoms: _186  and  _187
REMARK   75  A    between atoms: _186  and  _189
REMARK   76  A    between atoms: _189  and  _190
REMARK   77  A    between atoms: _193  and  _195
REMARK   78  A    between atoms: _195  and  _196
REMARK   79  A    between atoms: _195  and  _198
REMARK   80  A    between atoms: _198  and  _199
REMARK   81  A    between atoms: _204  and  _206
REMARK   82  A    between atoms: _206  and  _207
REMARK   83  A    between atoms: _206  and  _209
REMARK   84  A    between atoms: _209  and  _210
REMARK   85  A    between atoms: _210  and  ZN_362
REMARK   86  A    between atoms: _211  and  _213
REMARK   87  A    between atoms: _213  and  _214
REMARK   88  A    between atoms: _213  and  _216
REMARK   89  A    between atoms: _216  and  _217
REMARK   90  A    between atoms: _220  and  _222
REMARK   91  A    between atoms: _222  and  _223
REMARK   92  A    between atoms: _222  and  _225
REMARK   93  A    between atoms: _225  and  _226
REMARK   94  A    between atoms: _229  and  _231
REMARK   95  A    between atoms: _231  and  _232
REMARK   96  A    between atoms: _231  and  _234
REMARK   97  A    between atoms: _234  and  _235
REMARK   98  A    between atoms: _235  and  _236
REMARK   99  A    between atoms: _236  and  _237
REMARK  100  A    between atoms: _237  and  _238
REMARK  101  A    between atoms: _242  and  _244
REMARK  102  A    between atoms: _244  and  _245
REMARK  103  A    between atoms: _244  and  _247
REMARK  104  A    between atoms: _247  and  _248
REMARK  105  A    between atoms: _248  and  _249
REMARK  106  A    between atoms: _249  and  _250
REMARK  107  A    between atoms: _250  and  _251
REMARK  108  A    between atoms: _255  and  _257
REMARK  109  A    between atoms: _257  and  _258
REMARK  110  A    between atoms: _257  and  _260
REMARK  111  A    between atoms: _260  and  _261
REMARK  112  A    between atoms: _264  and  _266
REMARK  113  A    between atoms: _266  and  _267
REMARK  114  A    between atoms: _269  and  _271
REMARK  115  A    between atoms: _271  and  _272
REMARK  116  A    between atoms: _271  and  _274
REMARK  117  A    between atoms: _274  and  _275
REMARK  118  A    between atoms: _280  and  _282
REMARK  119  A    between atoms: _282  and  _283
REMARK  120  A    between atoms: _282  and  _285
REMARK  121  A    between atoms: _285  and  _286
REMARK  122  A    between atoms: _289  and  _291
REMARK  123  A    between atoms: _291  and  _292
REMARK  124  A    between atoms: _291  and  _294
REMARK  125  A    between atoms: _294  and  _295
REMARK  126  A    between atoms: _297  and  _299
REMARK  127  A    between atoms: _299  and  _300
REMARK  128  A    between atoms: _299  and  _302
REMARK  129  A    between atoms: _302  and  _303
REMARK  130  A    between atoms: _309  and  _311
REMARK  131  A    between atoms: _311  and  _312
REMARK  132  A    between atoms: _311  and  _314
REMARK  133  A    between atoms: _314  and  _315
REMARK  134  A    between atoms: _320  and  _321
REMARK  135  A    between atoms: _323  and  _325
REMARK  136  A    between atoms: _325  and  _326
REMARK  137  A    between atoms: _328  and  _330
REMARK  138  A    between atoms: _330  and  _331
REMARK  139  A    between atoms: _330  and  _333
REMARK  140  A    between atoms: _333  and  _334
REMARK  141  A    between atoms: _338  and  ZN_362
REMARK  142  A    between atoms: _339  and  _341
REMARK  143  A    between atoms: _341  and  _342
REMARK  144  A    between atoms: _341  and  _344
REMARK  145  A    between atoms: _344  and  _345
REMARK  146  A    between atoms: _348  and  _350
REMARK  147  A    between atoms: _350  and  _351
REMARK  148  A    between atoms: _350  and  _353
REMARK  149  A    between atoms: _353  and  _354
REMARK  150  A    between atoms: _359  and  _360
REMARK                            x       y       z     vdW  Elec       q    Type
REMARK                         _______ _______ _______ _____ _____    ______ ____
ROOT
ATOM      1  O   HOH     1      16.569  51.877  65.029  0.00  0.00    +0.000 OA
ENDROOT
TORSDOF 0
REMARK  Name = ../refined-set-2016/2gkl/2gkl_pocket.pdb
REMARK  150 active torsions:
REMARK  status: ('A' for Active; 'I' for Inactive)
REMARK    1  A    between atoms: _1  and  _3
REMARK    2  A    between atoms: _3  and  _4
REMARK    3  A    between atoms: _3  and  _6
REMARK    4  A    between atoms: _6  and  _7
REMARK    5  A    between atoms: _12  and  _13
REMARK    6  A    between atoms: _15  and  _17
REMARK    7  A    between atoms: _17  and  _18
REMARK    8  A    between atoms: _17  and  _20
REMARK    9  A    between atoms: _23  and  _25
REMARK   10  A    between atoms: _25  and  _26
REMARK   11  A    between atoms: _25  and  _28
REMARK   12  A    between atoms: _28  and  _29
REMARK   13  A    between atoms: _29  and  _30
REMARK   14  A    between atoms: _35  and  _37
REMARK   15  A    between atoms: _37  and  _38
REMARK   16  A    between atoms: _37  and  _40
REMARK   17  A    between atoms: _40  and  _41
REMARK   18  A    between atoms: _41  and  _42
REMARK   19  A    between atoms: _45  and  _47
REMARK   20  A    between atoms: _47  and  _48
REMARK   21  A    between atoms: _47  and  _50
REMARK   22  A    between atoms: _50  and  _51
REMARK   23  A    between atoms: _56  and  _58
REMARK   24  A    between atoms: _58  and  _59
REMARK   25  A    between atoms: _58  and  _61
REMARK   26  A    between atoms: _61  and  _62
REMARK   27  A    between atoms: _72  and  _74
REMARK   28  A    between atoms: _74  and  _75
REMARK   29  A    between atoms: _74  and  _77
REMARK   30  A    between atoms: _77  and  _78
REMARK   31  A    between atoms: _83  and  _85
REMARK   32  A    between atoms: _85  and  _86
REMARK   33  A    between atoms: _85  and  _88
REMARK   34  A    between atoms: _88  and  _89
REMARK   35  A    between atoms: _94  and  _96
REMARK   36  A    between atoms: _96  and  _97
REMARK   37  A    between atoms: _96  and  _99
REMARK   38  A    between atoms: _99  and  _100
REMARK   39  A    between atoms: _103  and  _105
REMARK   40  A    between atoms: _105  and  _106
REMARK   41  A    between atoms: _105  and  _108
REMARK   42  A    between atoms: _108  and  _109
REMARK   43  A    between atoms: _109  and  _111
REMARK   44  A    between atoms: _111  and  ZN_362
REMARK   45  A    between atoms: _112  and  _114
REMARK   46  A    between atoms: _114  and  _115
REMARK   47  A    between atoms: _114  and  _117
REMARK   48  A    between atoms: _117  and  _118
REMARK   49  A    between atoms: _118  and  _119
REMARK   50  A    between atoms: _119  and  _120
REMARK   51  A    between atoms: _129  and  _131
REMARK   52  A    between atoms: _131  and  _132
REMARK   53  A    between atoms: _131  and  _134
REMARK   54  A    between atoms: _134  and  _135
REMARK   55  A    between atoms: _138  and  _140
REMARK   56  A    between atoms: _140  and  _141
REMARK   57  A    between atoms: _140  and  _143
REMARK   58  A    between atoms: _143  and  _144
REMARK   59  A    between atoms: _150  and  _152
REMARK   60  A    between atoms: _152  and  _153
REMARK   61  A    between atoms: _152  and  _155
REMARK   62  A    between atoms: _155  and  _156
REMARK   63  A    between atoms: _159  and  _161
REMARK   64  A    between atoms: _161  and  _162
REMARK   65  A    between atoms: _164  and  _166
REMARK   66  A    between atoms: _166  and  _167
REMARK   67  A    between atoms: _166  and  _169
REMARK   68  A    between atoms: _169  and  _170
REMARK   69  A    between atoms: _173  and  _175
REMARK   70  A    between atoms: _175  and  _176
REMARK   71  A    between atoms: _175  and  _178
REMARK   72  A    between atoms: _178  and  _179
REMARK   73  A    between atoms: _184  and  _186
REMARK   74  A    between atoms: _186  and  _187
REMARK   75  A    between atoms: _186  and  _189
REMARK   76  A    between atoms: _189  and  _190
REMARK   77  A    between atoms: _193  and  _195
REMARK   78  A    between atoms: _195  and  _196
REMARK   79  A    between atoms: _195  and  _198
REMARK   80  A    between atoms: _198  and  _199
REMARK   81  A    between atoms: _204  and  _206
REMARK   82  A    between atoms: _206  and  _207
REMARK   83  A    between atoms: _206  and  _209
REMARK   84  A    between atoms: _209  and  _210
REMARK   85  A    between atoms: _210  and  ZN_362
REMARK   86  A    between atoms: _211  and  _213
REMARK   87  A    between atoms: _213  and  _214
REMARK   88  A    between atoms: _213  and  _216
REMARK   89  A    between atoms: _216  and  _217
REMARK   90  A    between atoms: _220  and  _222
REMARK   91  A    between atoms: _222  and  _223
REMARK   92  A    between atoms: _222  and  _225
REMARK   93  A    between atoms: _225  and  _226
REMARK   94  A    between atoms: _229  and  _231
REMARK   95  A    between atoms: _231  and  _232
REMARK   96  A    between atoms: _231  and  _234
REMARK   97  A    between atoms: _234  and  _235
REMARK   98  A    between atoms: _235  and  _236
REMARK   99  A    between atoms: _236  and  _237
REMARK  100  A    between atoms: _237  and  _238
REMARK  101  A    between atoms: _242  and  _244
REMARK  102  A    between atoms: _244  and  _245
REMARK  103  A    between atoms: _244  and  _247
REMARK  104  A    between atoms: _247  and  _248
REMARK  105  A    between atoms: _248  and  _249
REMARK  106  A    between atoms: _249  and  _250
REMARK  107  A    between atoms: _250  and  _251
REMARK  108  A    between atoms: _255  and  _257
REMARK  109  A    between atoms: _257  and  _258
REMARK  110  A    between atoms: _257  and  _260
REMARK  111  A    between atoms: _260  and  _261
REMARK  112  A    between atoms: _264  and  _266
REMARK  113  A    between atoms: _266  and  _267
REMARK  114  A    between atoms: _269  and  _271
REMARK  115  A    between atoms: _271  and  _272
REMARK  116  A    between atoms: _271  and  _274
REMARK  117  A    between atoms: _274  and  _275
REMARK  118  A    between atoms: _280  and  _282
REMARK  119  A    between atoms: _282  and  _283
REMARK  120  A    between atoms: _282  and  _285
REMARK  121  A    between atoms: _285  and  _286
REMARK  122  A    between atoms: _289  and  _291
REMARK  123  A    between atoms: _291  and  _292
REMARK  124  A    between atoms: _291  and  _294
REMARK  125  A    between atoms: _294  and  _295
REMARK  126  A    between atoms: _297  and  _299
REMARK  127  A    between atoms: _299  and  _300
REMARK  128  A    between atoms: _299  and  _302
REMARK  129  A    between atoms: _302  and  _303
REMARK  130  A    between atoms: _309  and  _311
REMARK  131  A    between atoms: _311  and  _312
REMARK  132  A    between atoms: _311  and  _314
REMARK  133  A    between atoms: _314  and  _315
REMARK  134  A    between atoms: _320  and  _321
REMARK  135  A    between atoms: _323  and  _325
REMARK  136  A    between atoms: _325  and  _326
REMARK  137  A    between atoms: _328  and  _330
REMARK  138  A    between atoms: _330  and  _331
REMARK  139  A    between atoms: _330  and  _333
REMARK  140  A    between atoms: _333  and  _334
REMARK  141  A    between atoms: _338  and  ZN_362
REMARK  142  A    between atoms: _339  and  _341
REMARK  143  A    between atoms: _341  and  _342
REMARK  144  A    between atoms: _341  and  _344
REMARK  145  A    between atoms: _344  and  _345
REMARK  146  A    between atoms: _348  and  _350
REMARK  147  A    between atoms: _350  and  _351
REMARK  148  A    between atoms: _350  and  _353
REMARK  149  A    between atoms: _353  and  _354
REMARK  150  A    between atoms: _359  and  _360
REMARK                            x       y       z     vdW  Elec       q    Type
REMARK                         _______ _______ _______ _____ _____    ______ ____
ROOT
ATOM      1  O   HOH     1      26.332  48.472  66.243  0.00  0.00    +0.000 OA
ENDROOT
TORSDOF 0
REMARK  Name = ../refined-set-2016/2gkl/2gkl_pocket.pdb
REMARK  150 active torsions:
REMARK  status: ('A' for Active; 'I' for Inactive)
REMARK    1  A    between atoms: _1  and  _3
REMARK    2  A    between atoms: _3  and  _4
REMARK    3  A    between atoms: _3  and  _6
REMARK    4  A    between atoms: _6  and  _7
REMARK    5  A    between atoms: _12  and  _13
REMARK    6  A    between atoms: _15  and  _17
REMARK    7  A    between atoms: _17  and  _18
REMARK    8  A    between atoms: _17  and  _20
REMARK    9  A    between atoms: _23  and  _25
REMARK   10  A    between atoms: _25  and  _26
REMARK   11  A    between atoms: _25  and  _28
REMARK   12  A    between atoms: _28  and  _29
REMARK   13  A    between atoms: _29  and  _30
REMARK   14  A    between atoms: _35  and  _37
REMARK   15  A    between atoms: _37  and  _38
REMARK   16  A    between atoms: _37  and  _40
REMARK   17  A    between atoms: _40  and  _41
REMARK   18  A    between atoms: _41  and  _42
REMARK   19  A    between atoms: _45  and  _47
REMARK   20  A    between atoms: _47  and  _48
REMARK   21  A    between atoms: _47  and  _50
REMARK   22  A    between atoms: _50  and  _51
REMARK   23  A    between atoms: _56  and  _58
REMARK   24  A    between atoms: _58  and  _59
REMARK   25  A    between atoms: _58  and  _61
REMARK   26  A    between atoms: _61  and  _62
REMARK   27  A    between atoms: _72  and  _74
REMARK   28  A    between atoms: _74  and  _75
REMARK   29  A    between atoms: _74  and  _77
REMARK   30  A    between atoms: _77  and  _78
REMARK   31  A    between atoms: _83  and  _85
REMARK   32  A    between atoms: _85  and  _86
REMARK   33  A    between atoms: _85  and  _88
REMARK   34  A    between atoms: _88  and  _89
REMARK   35  A    between atoms: _94  and  _96
REMARK   36  A    between atoms: _96  and  _97
REMARK   37  A    between atoms: _96  and  _99
REMARK   38  A    between atoms: _99  and  _100
REMARK   39  A    between atoms: _103  and  _105
REMARK   40  A    between atoms: _105  and  _106
REMARK   41  A    between atoms: _105  and  _108
REMARK   42  A    between atoms: _108  and  _109
REMARK   43  A    between atoms: _109  and  _111
REMARK   44  A    between atoms: _111  and  ZN_362
REMARK   45  A    between atoms: _112  and  _114
REMARK   46  A    between atoms: _114  and  _115
REMARK   47  A    between atoms: _114  and  _117
REMARK   48  A    between atoms: _117  and  _118
REMARK   49  A    between atoms: _118  and  _119
REMARK   50  A    between atoms: _119  and  _120
REMARK   51  A    between atoms: _129  and  _131
REMARK   52  A    between atoms: _131  and  _132
REMARK   53  A    between atoms: _131  and  _134
REMARK   54  A    between atoms: _134  and  _135
REMARK   55  A    between atoms: _138  and  _140
REMARK   56  A    between atoms: _140  and  _141
REMARK   57  A    between atoms: _140  and  _143
REMARK   58  A    between atoms: _143  and  _144
REMARK   59  A    between atoms: _150  and  _152
REMARK   60  A    between atoms: _152  and  _153
REMARK   61  A    between atoms: _152  and  _155
REMARK   62  A    between atoms: _155  and  _156
REMARK   63  A    between atoms: _159  and  _161
REMARK   64  A    between atoms: _161  and  _162
REMARK   65  A    between atoms: _164  and  _166
REMARK   66  A    between atoms: _166  and  _167
REMARK   67  A    between atoms: _166  and  _169
REMARK   68  A    between atoms: _169  and  _170
REMARK   69  A    between atoms: _173  and  _175
REMARK   70  A    between atoms: _175  and  _176
REMARK   71  A    between atoms: _175  and  _178
REMARK   72  A    between atoms: _178  and  _179
REMARK   73  A    between atoms: _184  and  _186
REMARK   74  A    between atoms: _186  and  _187
REMARK   75  A    between atoms: _186  and  _189
REMARK   76  A    between atoms: _189  and  _190
REMARK   77  A    between atoms: _193  and  _195
REMARK   78  A    between atoms: _195  and  _196
REMARK   79  A    between atoms: _195  and  _198
REMARK   80  A    between atoms: _198  and  _199
REMARK   81  A    between atoms: _204  and  _206
REMARK   82  A    between atoms: _206  and  _207
REMARK   83  A    between atoms: _206  and  _209
REMARK   84  A    between atoms: _209  and  _210
REMARK   85  A    between atoms: _210  and  ZN_362
REMARK   86  A    between atoms: _211  and  _213
REMARK   87  A    between atoms: _213  and  _214
REMARK   88  A    between atoms: _213  and  _216
REMARK   89  A    between atoms: _216  and  _217
REMARK   90  A    between atoms: _220  and  _222
REMARK   91  A    between atoms: _222  and  _223
REMARK   92  A    between atoms: _222  and  _225
REMARK   93  A    between atoms: _225  and  _226
REMARK   94  A    between atoms: _229  and  _231
REMARK   95  A    between atoms: _231  and  _232
REMARK   96  A    between atoms: _231  and  _234
REMARK   97  A    between atoms: _234  and  _235
REMARK   98  A    between atoms: _235  and  _236
REMARK   99  A    between atoms: _236  and  _237
REMARK  100  A    between atoms: _237  and  _238
REMARK  101  A    between atoms: _242  and  _244
REMARK  102  A    between atoms: _244  and  _245
REMARK  103  A    between atoms: _244  and  _247
REMARK  104  A    between atoms: _247  and  _248
REMARK  105  A    between atoms: _248  and  _249
REMARK  106  A    between atoms: _249  and  _250
REMARK  107  A    between atoms: _250  and  _251
REMARK  108  A    between atoms: _255  and  _257
REMARK  109  A    between atoms: _257  and  _258
REMARK  110  A    between atoms: _257  and  _260
REMARK  111  A    between atoms: _260  and  _261
REMARK  112  A    between atoms: _264  and  _266
REMARK  113  A    between atoms: _266  and  _267
REMARK  114  A    between atoms: _269  and  _271
REMARK  115  A    between atoms: _271  and  _272
REMARK  116  A    between atoms: _271  and  _274
REMARK  117  A    between atoms: _274  and  _275
REMARK  118  A    between atoms: _280  and  _282
REMARK  119  A    between atoms: _282  and  _283
REMARK  120  A    between atoms: _282  and  _285
REMARK  121  A    between atoms: _285  and  _286
REMARK  122  A    between atoms: _289  and  _291
REMARK  123  A    between atoms: _291  and  _292
REMARK  124  A    between atoms: _291  and  _294
REMARK  125  A    between atoms: _294  and  _295
REMARK  126  A    between atoms: _297  and  _299
REMARK  127  A    between atoms: _299  and  _300
REMARK  128  A    between atoms: _299  and  _302
REMARK  129  A    between atoms: _302  and  _303
REMARK  130  A    between atoms: _309  and  _311
REMARK  131  A    between atoms: _311  and  _312
REMARK  132  A    between atoms: _311  and  _314
REMARK  133  A    between atoms: _314  and  _315
REMARK  134  A    between atoms: _320  and  _321
REMARK  135  A    between atoms: _323  and  _325
REMARK  136  A    between atoms: _325  and  _326
REMARK  137  A    between atoms: _328  and  _330
REMARK  138  A    between atoms: _330  and  _331
REMARK  139  A    between atoms: _330  and  _333
REMARK  140  A    between atoms: _333  and  _334
REMARK  141  A    between atoms: _338  and  ZN_362
REMARK  142  A    between atoms: _339  and  _341
REMARK  143  A    between atoms: _341  and  _342
REMARK  144  A    between atoms: _341  and  _344
REMARK  145  A    between atoms: _344  and  _345
REMARK  146  A    between atoms: _348  and  _350
REMARK  147  A    between atoms: _350  and  _351
REMARK  148  A    between atoms: _350  and  _353
REMARK  149  A    between atoms: _353  and  _354
REMARK  150  A    between atoms: _359  and  _360
REMARK                            x       y       z     vdW  Elec       q    Type
REMARK                         _______ _______ _______ _____ _____    ______ ____
ROOT
ATOM      1  O   HOH     1      15.613  54.366  68.595  0.00  0.00    +0.000 OA
ENDROOT
TORSDOF 0
REMARK  Name = ../refined-set-2016/2gkl/2gkl_pocket.pdb
REMARK  150 active torsions:
REMARK  status: ('A' for Active; 'I' for Inactive)
REMARK    1  A    between atoms: _1  and  _3
REMARK    2  A    between atoms: _3  and  _4
REMARK    3  A    between atoms: _3  and  _6
REMARK    4  A    between atoms: _6  and  _7
REMARK    5  A    between atoms: _12  and  _13
REMARK    6  A    between atoms: _15  and  _17
REMARK    7  A    between atoms: _17  and  _18
REMARK    8  A    between atoms: _17  and  _20
REMARK    9  A    between atoms: _23  and  _25
REMARK   10  A    between atoms: _25  and  _26
REMARK   11  A    between atoms: _25  and  _28
REMARK   12  A    between atoms: _28  and  _29
REMARK   13  A    between atoms: _29  and  _30
REMARK   14  A    between atoms: _35  and  _37
REMARK   15  A    between atoms: _37  and  _38
REMARK   16  A    between atoms: _37  and  _40
REMARK   17  A    between atoms: _40  and  _41
REMARK   18  A    between atoms: _41  and  _42
REMARK   19  A    between atoms: _45  and  _47
REMARK   20  A    between atoms: _47  and  _48
REMARK   21  A    between atoms: _47  and  _50
REMARK   22  A    between atoms: _50  and  _51
REMARK   23  A    between atoms: _56  and  _58
REMARK   24  A    between atoms: _58  and  _59
REMARK   25  A    between atoms: _58  and  _61
REMARK   26  A    between atoms: _61  and  _62
REMARK   27  A    between atoms: _72  and  _74
REMARK   28  A    between atoms: _74  and  _75
REMARK   29  A    between atoms: _74  and  _77
REMARK   30  A    between atoms: _77  and  _78
REMARK   31  A    between atoms: _83  and  _85
REMARK   32  A    between atoms: _85  and  _86
REMARK   33  A    between atoms: _85  and  _88
REMARK   34  A    between atoms: _88  and  _89
REMARK   35  A    between atoms: _94  and  _96
REMARK   36  A    between atoms: _96  and  _97
REMARK   37  A    between atoms: _96  and  _99
REMARK   38  A    between atoms: _99  and  _100
REMARK   39  A    between atoms: _103  and  _105
REMARK   40  A    between atoms: _105  and  _106
REMARK   41  A    between atoms: _105  and  _108
REMARK   42  A    between atoms: _108  and  _109
REMARK   43  A    between atoms: _109  and  _111
REMARK   44  A    between atoms: _111  and  ZN_362
REMARK   45  A    between atoms: _112  and  _114
REMARK   46  A    between atoms: _114  and  _115
REMARK   47  A    between atoms: _114  and  _117
REMARK   48  A    between atoms: _117  and  _118
REMARK   49  A    between atoms: _118  and  _119
REMARK   50  A    between atoms: _119  and  _120
REMARK   51  A    between atoms: _129  and  _131
REMARK   52  A    between atoms: _131  and  _132
REMARK   53  A    between atoms: _131  and  _134
REMARK   54  A    between atoms: _134  and  _135
REMARK   55  A    between atoms: _138  and  _140
REMARK   56  A    between atoms: _140  and  _141
REMARK   57  A    between atoms: _140  and  _143
REMARK   58  A    between atoms: _143  and  _144
REMARK   59  A    between atoms: _150  and  _152
REMARK   60  A    between atoms: _152  and  _153
REMARK   61  A    between atoms: _152  and  _155
REMARK   62  A    between atoms: _155  and  _156
REMARK   63  A    between atoms: _159  and  _161
REMARK   64  A    between atoms: _161  and  _162
REMARK   65  A    between atoms: _164  and  _166
REMARK   66  A    between atoms: _166  and  _167
REMARK   67  A    between atoms: _166  and  _169
REMARK   68  A    between atoms: _169  and  _170
REMARK   69  A    between atoms: _173  and  _175
REMARK   70  A    between atoms: _175  and  _176
REMARK   71  A    between atoms: _175  and  _178
REMARK   72  A    between atoms: _178  and  _179
REMARK   73  A    between atoms: _184  and  _186
REMARK   74  A    between atoms: _186  and  _187
REMARK   75  A    between atoms: _186  and  _189
REMARK   76  A    between atoms: _189  and  _190
REMARK   77  A    between atoms: _193  and  _195
REMARK   78  A    between atoms: _195  and  _196
REMARK   79  A    between atoms: _195  and  _198
REMARK   80  A    between atoms: _198  and  _199
REMARK   81  A    between atoms: _204  and  _206
REMARK   82  A    between atoms: _206  and  _207
REMARK   83  A    between atoms: _206  and  _209
REMARK   84  A    between atoms: _209  and  _210
REMARK   85  A    between atoms: _210  and  ZN_362
REMARK   86  A    between atoms: _211  and  _213
REMARK   87  A    between atoms: _213  and  _214
REMARK   88  A    between atoms: _213  and  _216
REMARK   89  A    between atoms: _216  and  _217
REMARK   90  A    between atoms: _220  and  _222
REMARK   91  A    between atoms: _222  and  _223
REMARK   92  A    between atoms: _222  and  _225
REMARK   93  A    between atoms: _225  and  _226
REMARK   94  A    between atoms: _229  and  _231
REMARK   95  A    between atoms: _231  and  _232
REMARK   96  A    between atoms: _231  and  _234
REMARK   97  A    between atoms: _234  and  _235
REMARK   98  A    between atoms: _235  and  _236
REMARK   99  A    between atoms: _236  and  _237
REMARK  100  A    between atoms: _237  and  _238
REMARK  101  A    between atoms: _242  and  _244
REMARK  102  A    between atoms: _244  and  _245
REMARK  103  A    between atoms: _244  and  _247
REMARK  104  A    between atoms: _247  and  _248
REMARK  105  A    between atoms: _248  and  _249
REMARK  106  A    between atoms: _249  and  _250
REMARK  107  A    between atoms: _250  and  _251
REMARK  108  A    between atoms: _255  and  _257
REMARK  109  A    between atoms: _257  and  _258
REMARK  110  A    between atoms: _257  and  _260
REMARK  111  A    between atoms: _260  and  _261
REMARK  112  A    between atoms: _264  and  _266
REMARK  113  A    between atoms: _266  and  _267
REMARK  114  A    between atoms: _269  and  _271
REMARK  115  A    between atoms: _271  and  _272
REMARK  116  A    between atoms: _271  and  _274
REMARK  117  A    between atoms: _274  and  _275
REMARK  118  A    between atoms: _280  and  _282
REMARK  119  A    between atoms: _282  and  _283
REMARK  120  A    between atoms: _282  and  _285
REMARK  121  A    between atoms: _285  and  _286
REMARK  122  A    between atoms: _289  and  _291
REMARK  123  A    between atoms: _291  and  _292
REMARK  124  A    between atoms: _291  and  _294
REMARK  125  A    between atoms: _294  and  _295
REMARK  126  A    between atoms: _297  and  _299
REMARK  127  A    between atoms: _299  and  _300
REMARK  128  A    between atoms: _299  and  _302
REMARK  129  A    between atoms: _302  and  _303
REMARK  130  A    between atoms: _309  and  _311
REMARK  131  A    between atoms: _311  and  _312
REMARK  132  A    between atoms: _311  and  _314
REMARK  133  A    between atoms: _314  and  _315
REMARK  134  A    between atoms: _320  and  _321
REMARK  135  A    between atoms: _323  and  _325
REMARK  136  A    between atoms: _325  and  _326
REMARK  137  A    between atoms: _328  and  _330
REMARK  138  A    between atoms: _330  and  _331
REMARK  139  A    between atoms: _330  and  _333
REMARK  140  A    between atoms: _333  and  _334
REMARK  141  A    between atoms: _338  and  ZN_362
REMARK  142  A    between atoms: _339  and  _341
REMARK  143  A    between atoms: _341  and  _342
REMARK  144  A    between atoms: _341  and  _344
REMARK  145  A    between atoms: _344  and  _345
REMARK  146  A    between atoms: _348  and  _350
REMARK  147  A    between atoms: _350  and  _351
REMARK  148  A    between atoms: _350  and  _353
REMARK  149  A    between atoms: _353  and  _354
REMARK  150  A    between atoms: _359  and  _360
REMARK                            x       y       z     vdW  Elec       q    Type
REMARK                         _______ _______ _______ _____ _____    ______ ____
ROOT
ATOM      1  O   HOH     1      23.803  48.081  64.624  0.00  0.00    +0.000 OA
ENDROOT
TORSDOF 0
REMARK  Name = ../refined-set-2016/2gkl/2gkl_pocket.pdb
REMARK  150 active torsions:
REMARK  status: ('A' for Active; 'I' for Inactive)
REMARK    1  A    between atoms: _1  and  _3
REMARK    2  A    between atoms: _3  and  _4
REMARK    3  A    between atoms: _3  and  _6
REMARK    4  A    between atoms: _6  and  _7
REMARK    5  A    between atoms: _12  and  _13
REMARK    6  A    between atoms: _15  and  _17
REMARK    7  A    between atoms: _17  and  _18
REMARK    8  A    between atoms: _17  and  _20
REMARK    9  A    between atoms: _23  and  _25
REMARK   10  A    between atoms: _25  and  _26
REMARK   11  A    between atoms: _25  and  _28
REMARK   12  A    between atoms: _28  and  _29
REMARK   13  A    between atoms: _29  and  _30
REMARK   14  A    between atoms: _35  and  _37
REMARK   15  A    between atoms: _37  and  _38
REMARK   16  A    between atoms: _37  and  _40
REMARK   17  A    between atoms: _40  and  _41
REMARK   18  A    between atoms: _41  and  _42
REMARK   19  A    between atoms: _45  and  _47
REMARK   20  A    between atoms: _47  and  _48
REMARK   21  A    between atoms: _47  and  _50
REMARK   22  A    between atoms: _50  and  _51
REMARK   23  A    between atoms: _56  and  _58
REMARK   24  A    between atoms: _58  and  _59
REMARK   25  A    between atoms: _58  and  _61
REMARK   26  A    between atoms: _61  and  _62
REMARK   27  A    between atoms: _72  and  _74
REMARK   28  A    between atoms: _74  and  _75
REMARK   29  A    between atoms: _74  and  _77
REMARK   30  A    between atoms: _77  and  _78
REMARK   31  A    between atoms: _83  and  _85
REMARK   32  A    between atoms: _85  and  _86
REMARK   33  A    between atoms: _85  and  _88
REMARK   34  A    between atoms: _88  and  _89
REMARK   35  A    between atoms: _94  and  _96
REMARK   36  A    between atoms: _96  and  _97
REMARK   37  A    between atoms: _96  and  _99
REMARK   38  A    between atoms: _99  and  _100
REMARK   39  A    between atoms: _103  and  _105
REMARK   40  A    between atoms: _105  and  _106
REMARK   41  A    between atoms: _105  and  _108
REMARK   42  A    between atoms: _108  and  _109
REMARK   43  A    between atoms: _109  and  _111
REMARK   44  A    between atoms: _111  and  ZN_362
REMARK   45  A    between atoms: _112  and  _114
REMARK   46  A    between atoms: _114  and  _115
REMARK   47  A    between atoms: _114  and  _117
REMARK   48  A    between atoms: _117  and  _118
REMARK   49  A    between atoms: _118  and  _119
REMARK   50  A    between atoms: _119  and  _120
REMARK   51  A    between atoms: _129  and  _131
REMARK   52  A    between atoms: _131  and  _132
REMARK   53  A    between atoms: _131  and  _134
REMARK   54  A    between atoms: _134  and  _135
REMARK   55  A    between atoms: _138  and  _140
REMARK   56  A    between atoms: _140  and  _141
REMARK   57  A    between atoms: _140  and  _143
REMARK   58  A    between atoms: _143  and  _144
REMARK   59  A    between atoms: _150  and  _152
REMARK   60  A    between atoms: _152  and  _153
REMARK   61  A    between atoms: _152  and  _155
REMARK   62  A    between atoms: _155  and  _156
REMARK   63  A    between atoms: _159  and  _161
REMARK   64  A    between atoms: _161  and  _162
REMARK   65  A    between atoms: _164  and  _166
REMARK   66  A    between atoms: _166  and  _167
REMARK   67  A    between atoms: _166  and  _169
REMARK   68  A    between atoms: _169  and  _170
REMARK   69  A    between atoms: _173  and  _175
REMARK   70  A    between atoms: _175  and  _176
REMARK   71  A    between atoms: _175  and  _178
REMARK   72  A    between atoms: _178  and  _179
REMARK   73  A    between atoms: _184  and  _186
REMARK   74  A    between atoms: _186  and  _187
REMARK   75  A    between atoms: _186  and  _189
REMARK   76  A    between atoms: _189  and  _190
REMARK   77  A    between atoms: _193  and  _195
REMARK   78  A    between atoms: _195  and  _196
REMARK   79  A    between atoms: _195  and  _198
REMARK   80  A    between atoms: _198  and  _199
REMARK   81  A    between atoms: _204  and  _206
REMARK   82  A    between atoms: _206  and  _207
REMARK   83  A    between atoms: _206  and  _209
REMARK   84  A    between atoms: _209  and  _210
REMARK   85  A    between atoms: _210  and  ZN_362
REMARK   86  A    between atoms: _211  and  _213
REMARK   87  A    between atoms: _213  and  _214
REMARK   88  A    between atoms: _213  and  _216
REMARK   89  A    between atoms: _216  and  _217
REMARK   90  A    between atoms: _220  and  _222
REMARK   91  A    between atoms: _222  and  _223
REMARK   92  A    between atoms: _222  and  _225
REMARK   93  A    between atoms: _225  and  _226
REMARK   94  A    between atoms: _229  and  _231
REMARK   95  A    between atoms: _231  and  _232
REMARK   96  A    between atoms: _231  and  _234
REMARK   97  A    between atoms: _234  and  _235
REMARK   98  A    between atoms: _235  and  _236
REMARK   99  A    between atoms: _236  and  _237
REMARK  100  A    between atoms: _237  and  _238
REMARK  101  A    between atoms: _242  and  _244
REMARK  102  A    between atoms: _244  and  _245
REMARK  103  A    between atoms: _244  and  _247
REMARK  104  A    between atoms: _247  and  _248
REMARK  105  A    between atoms: _248  and  _249
REMARK  106  A    between atoms: _249  and  _250
REMARK  107  A    between atoms: _250  and  _251
REMARK  108  A    between atoms: _255  and  _257
REMARK  109  A    between atoms: _257  and  _258
REMARK  110  A    between atoms: _257  and  _260
REMARK  111  A    between atoms: _260  and  _261
REMARK  112  A    between atoms: _264  and  _266
REMARK  113  A    between atoms: _266  and  _267
REMARK  114  A    between atoms: _269  and  _271
REMARK  115  A    between atoms: _271  and  _272
REMARK  116  A    between atoms: _271  and  _274
REMARK  117  A    between atoms: _274  and  _275
REMARK  118  A    between atoms: _280  and  _282
REMARK  119  A    between atoms: _282  and  _283
REMARK  120  A    between atoms: _282  and  _285
REMARK  121  A    between atoms: _285  and  _286
REMARK  122  A    between atoms: _289  and  _291
REMARK  123  A    between atoms: _291  and  _292
REMARK  124  A    between atoms: _291  and  _294
REMARK  125  A    between atoms: _294  and  _295
REMARK  126  A    between atoms: _297  and  _299
REMARK  127  A    between atoms: _299  and  _300
REMARK  128  A    between atoms: _299  and  _302
REMARK  129  A    between atoms: _302  and  _303
REMARK  130  A    between atoms: _309  and  _311
REMARK  131  A    between atoms: _311  and  _312
REMARK  132  A    between atoms: _311  and  _314
REMARK  133  A    between atoms: _314  and  _315
REMARK  134  A    between atoms: _320  and  _321
REMARK  135  A    between atoms: _323  and  _325
REMARK  136  A    between atoms: _325  and  _326
REMARK  137  A    between atoms: _328  and  _330
REMARK  138  A    between atoms: _330  and  _331
REMARK  139  A    between atoms: _330  and  _333
REMARK  140  A    between atoms: _333  and  _334
REMARK  141  A    between atoms: _338  and  ZN_362
REMARK  142  A    between atoms: _339  and  _341
REMARK  143  A    between atoms: _341  and  _342
REMARK  144  A    between atoms: _341  and  _344
REMARK  145  A    between atoms: _344  and  _345
REMARK  146  A    between atoms: _348  and  _350
REMARK  147  A    between atoms: _350  and  _351
REMARK  148  A    between atoms: _350  and  _353
REMARK  149  A    between atoms: _353  and  _354
REMARK  150  A    between atoms: _359  and  _360
REMARK                            x       y       z     vdW  Elec       q    Type
REMARK                         _______ _______ _______ _____ _____    ______ ____
ROOT
ATOM      1  O   HOH     1      23.787  52.326  71.892  0.00  0.00    +0.000 OA
ENDROOT
TORSDOF 0
REMARK  Name = ../refined-set-2016/2gkl/2gkl_pocket.pdb
REMARK  150 active torsions:
REMARK  status: ('A' for Active; 'I' for Inactive)
REMARK    1  A    between atoms: _1  and  _3
REMARK    2  A    between atoms: _3  and  _4
REMARK    3  A    between atoms: _3  and  _6
REMARK    4  A    between atoms: _6  and  _7
REMARK    5  A    between atoms: _12  and  _13
REMARK    6  A    between atoms: _15  and  _17
REMARK    7  A    between atoms: _17  and  _18
REMARK    8  A    between atoms: _17  and  _20
REMARK    9  A    between atoms: _23  and  _25
REMARK   10  A    between atoms: _25  and  _26
REMARK   11  A    between atoms: _25  and  _28
REMARK   12  A    between atoms: _28  and  _29
REMARK   13  A    between atoms: _29  and  _30
REMARK   14  A    between atoms: _35  and  _37
REMARK   15  A    between atoms: _37  and  _38
REMARK   16  A    between atoms: _37  and  _40
REMARK   17  A    between atoms: _40  and  _41
REMARK   18  A    between atoms: _41  and  _42
REMARK   19  A    between atoms: _45  and  _47
REMARK   20  A    between atoms: _47  and  _48
REMARK   21  A    between atoms: _47  and  _50
REMARK   22  A    between atoms: _50  and  _51
REMARK   23  A    between atoms: _56  and  _58
REMARK   24  A    between atoms: _58  and  _59
REMARK   25  A    between atoms: _58  and  _61
REMARK   26  A    between atoms: _61  and  _62
REMARK   27  A    between atoms: _72  and  _74
REMARK   28  A    between atoms: _74  and  _75
REMARK   29  A    between atoms: _74  and  _77
REMARK   30  A    between atoms: _77  and  _78
REMARK   31  A    between atoms: _83  and  _85
REMARK   32  A    between atoms: _85  and  _86
REMARK   33  A    between atoms: _85  and  _88
REMARK   34  A    between atoms: _88  and  _89
REMARK   35  A    between atoms: _94  and  _96
REMARK   36  A    between atoms: _96  and  _97
REMARK   37  A    between atoms: _96  and  _99
REMARK   38  A    between atoms: _99  and  _100
REMARK   39  A    between atoms: _103  and  _105
REMARK   40  A    between atoms: _105  and  _106
REMARK   41  A    between atoms: _105  and  _108
REMARK   42  A    between atoms: _108  and  _109
REMARK   43  A    between atoms: _109  and  _111
REMARK   44  A    between atoms: _111  and  ZN_362
REMARK   45  A    between atoms: _112  and  _114
REMARK   46  A    between atoms: _114  and  _115
REMARK   47  A    between atoms: _114  and  _117
REMARK   48  A    between atoms: _117  and  _118
REMARK   49  A    between atoms: _118  and  _119
REMARK   50  A    between atoms: _119  and  _120
REMARK   51  A    between atoms: _129  and  _131
REMARK   52  A    between atoms: _131  and  _132
REMARK   53  A    between atoms: _131  and  _134
REMARK   54  A    between atoms: _134  and  _135
REMARK   55  A    between atoms: _138  and  _140
REMARK   56  A    between atoms: _140  and  _141
REMARK   57  A    between atoms: _140  and  _143
REMARK   58  A    between atoms: _143  and  _144
REMARK   59  A    between atoms: _150  and  _152
REMARK   60  A    between atoms: _152  and  _153
REMARK   61  A    between atoms: _152  and  _155
REMARK   62  A    between atoms: _155  and  _156
REMARK   63  A    between atoms: _159  and  _161
REMARK   64  A    between atoms: _161  and  _162
REMARK   65  A    between atoms: _164  and  _166
REMARK   66  A    between atoms: _166  and  _167
REMARK   67  A    between atoms: _166  and  _169
REMARK   68  A    between atoms: _169  and  _170
REMARK   69  A    between atoms: _173  and  _175
REMARK   70  A    between atoms: _175  and  _176
REMARK   71  A    between atoms: _175  and  _178
REMARK   72  A    between atoms: _178  and  _179
REMARK   73  A    between atoms: _184  and  _186
REMARK   74  A    between atoms: _186  and  _187
REMARK   75  A    between atoms: _186  and  _189
REMARK   76  A    between atoms: _189  and  _190
REMARK   77  A    between atoms: _193  and  _195
REMARK   78  A    between atoms: _195  and  _196
REMARK   79  A    between atoms: _195  and  _198
REMARK   80  A    between atoms: _198  and  _199
REMARK   81  A    between atoms: _204  and  _206
REMARK   82  A    between atoms: _206  and  _207
REMARK   83  A    between atoms: _206  and  _209
REMARK   84  A    between atoms: _209  and  _210
REMARK   85  A    between atoms: _210  and  ZN_362
REMARK   86  A    between atoms: _211  and  _213
REMARK   87  A    between atoms: _213  and  _214
REMARK   88  A    between atoms: _213  and  _216
REMARK   89  A    between atoms: _216  and  _217
REMARK   90  A    between atoms: _220  and  _222
REMARK   91  A    between atoms: _222  and  _223
REMARK   92  A    between atoms: _222  and  _225
REMARK   93  A    between atoms: _225  and  _226
REMARK   94  A    between atoms: _229  and  _231
REMARK   95  A    between atoms: _231  and  _232
REMARK   96  A    between atoms: _231  and  _234
REMARK   97  A    between atoms: _234  and  _235
REMARK   98  A    between atoms: _235  and  _236
REMARK   99  A    between atoms: _236  and  _237
REMARK  100  A    between atoms: _237  and  _238
REMARK  101  A    between atoms: _242  and  _244
REMARK  102  A    between atoms: _244  and  _245
REMARK  103  A    between atoms: _244  and  _247
REMARK  104  A    between atoms: _247  and  _248
REMARK  105  A    between atoms: _248  and  _249
REMARK  106  A    between atoms: _249  and  _250
REMARK  107  A    between atoms: _250  and  _251
REMARK  108  A    between atoms: _255  and  _257
REMARK  109  A    between atoms: _257  and  _258
REMARK  110  A    between atoms: _257  and  _260
REMARK  111  A    between atoms: _260  and  _261
REMARK  112  A    between atoms: _264  and  _266
REMARK  113  A    between atoms: _266  and  _267
REMARK  114  A    between atoms: _269  and  _271
REMARK  115  A    between atoms: _271  and  _272
REMARK  116  A    between atoms: _271  and  _274
REMARK  117  A    between atoms: _274  and  _275
REMARK  118  A    between atoms: _280  and  _282
REMARK  119  A    between atoms: _282  and  _283
REMARK  120  A    between atoms: _282  and  _285
REMARK  121  A    between atoms: _285  and  _286
REMARK  122  A    between atoms: _289  and  _291
REMARK  123  A    between atoms: _291  and  _292
REMARK  124  A    between atoms: _291  and  _294
REMARK  125  A    between atoms: _294  and  _295
REMARK  126  A    between atoms: _297  and  _299
REMARK  127  A    between atoms: _299  and  _300
REMARK  128  A    between atoms: _299  and  _302
REMARK  129  A    between atoms: _302  and  _303
REMARK  130  A    between atoms: _309  and  _311
REMARK  131  A    between atoms: _311  and  _312
REMARK  132  A    between atoms: _311  and  _314
REMARK  133  A    between atoms: _314  and  _315
REMARK  134  A    between atoms: _320  and  _321
REMARK  135  A    between atoms: _323  and  _325
REMARK  136  A    between atoms: _325  and  _326
REMARK  137  A    between atoms: _328  and  _330
REMARK  138  A    between atoms: _330  and  _331
REMARK  139  A    between atoms: _330  and  _333
REMARK  140  A    between atoms: _333  and  _334
REMARK  141  A    between atoms: _338  and  ZN_362
REMARK  142  A    between atoms: _339  and  _341
REMARK  143  A    between atoms: _341  and  _342
REMARK  144  A    between atoms: _341  and  _344
REMARK  145  A    between atoms: _344  and  _345
REMARK  146  A    between atoms: _348  and  _350
REMARK  147  A    between atoms: _350  and  _351
REMARK  148  A    between atoms: _350  and  _353
REMARK  149  A    between atoms: _353  and  _354
REMARK  150  A    between atoms: _359  and  _360
REMARK                            x       y       z     vdW  Elec       q    Type
REMARK                         _______ _______ _______ _____ _____    ______ ____
ROOT
ATOM      1  O   HOH     1      21.739  53.380  71.948  0.00  0.00    +0.000 OA
ENDROOT
TORSDOF 0
REMARK  Name = ../refined-set-2016/2gkl/2gkl_pocket.pdb
REMARK  150 active torsions:
REMARK  status: ('A' for Active; 'I' for Inactive)
REMARK    1  A    between atoms: _1  and  _3
REMARK    2  A    between atoms: _3  and  _4
REMARK    3  A    between atoms: _3  and  _6
REMARK    4  A    between atoms: _6  and  _7
REMARK    5  A    between atoms: _12  and  _13
REMARK    6  A    between atoms: _15  and  _17
REMARK    7  A    between atoms: _17  and  _18
REMARK    8  A    between atoms: _17  and  _20
REMARK    9  A    between atoms: _23  and  _25
REMARK   10  A    between atoms: _25  and  _26
REMARK   11  A    between atoms: _25  and  _28
REMARK   12  A    between atoms: _28  and  _29
REMARK   13  A    between atoms: _29  and  _30
REMARK   14  A    between atoms: _35  and  _37
REMARK   15  A    between atoms: _37  and  _38
REMARK   16  A    between atoms: _37  and  _40
REMARK   17  A    between atoms: _40  and  _41
REMARK   18  A    between atoms: _41  and  _42
REMARK   19  A    between atoms: _45  and  _47
REMARK   20  A    between atoms: _47  and  _48
REMARK   21  A    between atoms: _47  and  _50
REMARK   22  A    between atoms: _50  and  _51
REMARK   23  A    between atoms: _56  and  _58
REMARK   24  A    between atoms: _58  and  _59
REMARK   25  A    between atoms: _58  and  _61
REMARK   26  A    between atoms: _61  and  _62
REMARK   27  A    between atoms: _72  and  _74
REMARK   28  A    between atoms: _74  and  _75
REMARK   29  A    between atoms: _74  and  _77
REMARK   30  A    between atoms: _77  and  _78
REMARK   31  A    between atoms: _83  and  _85
REMARK   32  A    between atoms: _85  and  _86
REMARK   33  A    between atoms: _85  and  _88
REMARK   34  A    between atoms: _88  and  _89
REMARK   35  A    between atoms: _94  and  _96
REMARK   36  A    between atoms: _96  and  _97
REMARK   37  A    between atoms: _96  and  _99
REMARK   38  A    between atoms: _99  and  _100
REMARK   39  A    between atoms: _103  and  _105
REMARK   40  A    between atoms: _105  and  _106
REMARK   41  A    between atoms: _105  and  _108
REMARK   42  A    between atoms: _108  and  _109
REMARK   43  A    between atoms: _109  and  _111
REMARK   44  A    between atoms: _111  and  ZN_362
REMARK   45  A    between atoms: _112  and  _114
REMARK   46  A    between atoms: _114  and  _115
REMARK   47  A    between atoms: _114  and  _117
REMARK   48  A    between atoms: _117  and  _118
REMARK   49  A    between atoms: _118  and  _119
REMARK   50  A    between atoms: _119  and  _120
REMARK   51  A    between atoms: _129  and  _131
REMARK   52  A    between atoms: _131  and  _132
REMARK   53  A    between atoms: _131  and  _134
REMARK   54  A    between atoms: _134  and  _135
REMARK   55  A    between atoms: _138  and  _140
REMARK   56  A    between atoms: _140  and  _141
REMARK   57  A    between atoms: _140  and  _143
REMARK   58  A    between atoms: _143  and  _144
REMARK   59  A    between atoms: _150  and  _152
REMARK   60  A    between atoms: _152  and  _153
REMARK   61  A    between atoms: _152  and  _155
REMARK   62  A    between atoms: _155  and  _156
REMARK   63  A    between atoms: _159  and  _161
REMARK   64  A    between atoms: _161  and  _162
REMARK   65  A    between atoms: _164  and  _166
REMARK   66  A    between atoms: _166  and  _167
REMARK   67  A    between atoms: _166  and  _169
REMARK   68  A    between atoms: _169  and  _170
REMARK   69  A    between atoms: _173  and  _175
REMARK   70  A    between atoms: _175  and  _176
REMARK   71  A    between atoms: _175  and  _178
REMARK   72  A    between atoms: _178  and  _179
REMARK   73  A    between atoms: _184  and  _186
REMARK   74  A    between atoms: _186  and  _187
REMARK   75  A    between atoms: _186  and  _189
REMARK   76  A    between atoms: _189  and  _190
REMARK   77  A    between atoms: _193  and  _195
REMARK   78  A    between atoms: _195  and  _196
REMARK   79  A    between atoms: _195  and  _198
REMARK   80  A    between atoms: _198  and  _199
REMARK   81  A    between atoms: _204  and  _206
REMARK   82  A    between atoms: _206  and  _207
REMARK   83  A    between atoms: _206  and  _209
REMARK   84  A    between atoms: _209  and  _210
REMARK   85  A    between atoms: _210  and  ZN_362
REMARK   86  A    between atoms: _211  and  _213
REMARK   87  A    between atoms: _213  and  _214
REMARK   88  A    between atoms: _213  and  _216
REMARK   89  A    between atoms: _216  and  _217
REMARK   90  A    between atoms: _220  and  _222
REMARK   91  A    between atoms: _222  and  _223
REMARK   92  A    between atoms: _222  and  _225
REMARK   93  A    between atoms: _225  and  _226
REMARK   94  A    between atoms: _229  and  _231
REMARK   95  A    between atoms: _231  and  _232
REMARK   96  A    between atoms: _231  and  _234
REMARK   97  A    between atoms: _234  and  _235
REMARK   98  A    between atoms: _235  and  _236
REMARK   99  A    between atoms: _236  and  _237
REMARK  100  A    between atoms: _237  and  _238
REMARK  101  A    between atoms: _242  and  _244
REMARK  102  A    between atoms: _244  and  _245
REMARK  103  A    between atoms: _244  and  _247
REMARK  104  A    between atoms: _247  and  _248
REMARK  105  A    between atoms: _248  and  _249
REMARK  106  A    between atoms: _249  and  _250
REMARK  107  A    between atoms: _250  and  _251
REMARK  108  A    between atoms: _255  and  _257
REMARK  109  A    between atoms: _257  and  _258
REMARK  110  A    between atoms: _257  and  _260
REMARK  111  A    between atoms: _260  and  _261
REMARK  112  A    between atoms: _264  and  _266
REMARK  113  A    between atoms: _266  and  _267
REMARK  114  A    between atoms: _269  and  _271
REMARK  115  A    between atoms: _271  and  _272
REMARK  116  A    between atoms: _271  and  _274
REMARK  117  A    between atoms: _274  and  _275
REMARK  118  A    between atoms: _280  and  _282
REMARK  119  A    between atoms: _282  and  _283
REMARK  120  A    between atoms: _282  and  _285
REMARK  121  A    between atoms: _285  and  _286
REMARK  122  A    between atoms: _289  and  _291
REMARK  123  A    between atoms: _291  and  _292
REMARK  124  A    between atoms: _291  and  _294
REMARK  125  A    between atoms: _294  and  _295
REMARK  126  A    between atoms: _297  and  _299
REMARK  127  A    between atoms: _299  and  _300
REMARK  128  A    between atoms: _299  and  _302
REMARK  129  A    between atoms: _302  and  _303
REMARK  130  A    between atoms: _309  and  _311
REMARK  131  A    between atoms: _311  and  _312
REMARK  132  A    between atoms: _311  and  _314
REMARK  133  A    between atoms: _314  and  _315
REMARK  134  A    between atoms: _320  and  _321
REMARK  135  A    between atoms: _323  and  _325
REMARK  136  A    between atoms: _325  and  _326
REMARK  137  A    between atoms: _328  and  _330
REMARK  138  A    between atoms: _330  and  _331
REMARK  139  A    between atoms: _330  and  _333
REMARK  140  A    between atoms: _333  and  _334
REMARK  141  A    between atoms: _338  and  ZN_362
REMARK  142  A    between atoms: _339  and  _341
REMARK  143  A    between atoms: _341  and  _342
REMARK  144  A    between atoms: _341  and  _344
REMARK  145  A    between atoms: _344  and  _345
REMARK  146  A    between atoms: _348  and  _350
REMARK  147  A    between atoms: _350  and  _351
REMARK  148  A    between atoms: _350  and  _353
REMARK  149  A    between atoms: _353  and  _354
REMARK  150  A    between atoms: _359  and  _360
REMARK                            x       y       z     vdW  Elec       q    Type
REMARK                         _______ _______ _______ _____ _____    ______ ____
ROOT
ATOM      1  O   HOH     1      16.795  55.828  62.232  0.00  0.00    +0.000 OA
ENDROOT
TORSDOF 0
REMARK  Name = ../refined-set-2016/2gkl/2gkl_pocket.pdb
REMARK  150 active torsions:
REMARK  status: ('A' for Active; 'I' for Inactive)
REMARK    1  A    between atoms: _1  and  _3
REMARK    2  A    between atoms: _3  and  _4
REMARK    3  A    between atoms: _3  and  _6
REMARK    4  A    between atoms: _6  and  _7
REMARK    5  A    between atoms: _12  and  _13
REMARK    6  A    between atoms: _15  and  _17
REMARK    7  A    between atoms: _17  and  _18
REMARK    8  A    between atoms: _17  and  _20
REMARK    9  A    between atoms: _23  and  _25
REMARK   10  A    between atoms: _25  and  _26
REMARK   11  A    between atoms: _25  and  _28
REMARK   12  A    between atoms: _28  and  _29
REMARK   13  A    between atoms: _29  and  _30
REMARK   14  A    between atoms: _35  and  _37
REMARK   15  A    between atoms: _37  and  _38
REMARK   16  A    between atoms: _37  and  _40
REMARK   17  A    between atoms: _40  and  _41
REMARK   18  A    between atoms: _41  and  _42
REMARK   19  A    between atoms: _45  and  _47
REMARK   20  A    between atoms: _47  and  _48
REMARK   21  A    between atoms: _47  and  _50
REMARK   22  A    between atoms: _50  and  _51
REMARK   23  A    between atoms: _56  and  _58
REMARK   24  A    between atoms: _58  and  _59
REMARK   25  A    between atoms: _58  and  _61
REMARK   26  A    between atoms: _61  and  _62
REMARK   27  A    between atoms: _72  and  _74
REMARK   28  A    between atoms: _74  and  _75
REMARK   29  A    between atoms: _74  and  _77
REMARK   30  A    between atoms: _77  and  _78
REMARK   31  A    between atoms: _83  and  _85
REMARK   32  A    between atoms: _85  and  _86
REMARK   33  A    between atoms: _85  and  _88
REMARK   34  A    between atoms: _88  and  _89
REMARK   35  A    between atoms: _94  and  _96
REMARK   36  A    between atoms: _96  and  _97
REMARK   37  A    between atoms: _96  and  _99
REMARK   38  A    between atoms: _99  and  _100
REMARK   39  A    between atoms: _103  and  _105
REMARK   40  A    between atoms: _105  and  _106
REMARK   41  A    between atoms: _105  and  _108
REMARK   42  A    between atoms: _108  and  _109
REMARK   43  A    between atoms: _109  and  _111
REMARK   44  A    between atoms: _111  and  ZN_362
REMARK   45  A    between atoms: _112  and  _114
REMARK   46  A    between atoms: _114  and  _115
REMARK   47  A    between atoms: _114  and  _117
REMARK   48  A    between atoms: _117  and  _118
REMARK   49  A    between atoms: _118  and  _119
REMARK   50  A    between atoms: _119  and  _120
REMARK   51  A    between atoms: _129  and  _131
REMARK   52  A    between atoms: _131  and  _132
REMARK   53  A    between atoms: _131  and  _134
REMARK   54  A    between atoms: _134  and  _135
REMARK   55  A    between atoms: _138  and  _140
REMARK   56  A    between atoms: _140  and  _141
REMARK   57  A    between atoms: _140  and  _143
REMARK   58  A    between atoms: _143  and  _144
REMARK   59  A    between atoms: _150  and  _152
REMARK   60  A    between atoms: _152  and  _153
REMARK   61  A    between atoms: _152  and  _155
REMARK   62  A    between atoms: _155  and  _156
REMARK   63  A    between atoms: _159  and  _161
REMARK   64  A    between atoms: _161  and  _162
REMARK   65  A    between atoms: _164  and  _166
REMARK   66  A    between atoms: _166  and  _167
REMARK   67  A    between atoms: _166  and  _169
REMARK   68  A    between atoms: _169  and  _170
REMARK   69  A    between atoms: _173  and  _175
REMARK   70  A    between atoms: _175  and  _176
REMARK   71  A    between atoms: _175  and  _178
REMARK   72  A    between atoms: _178  and  _179
REMARK   73  A    between atoms: _184  and  _186
REMARK   74  A    between atoms: _186  and  _187
REMARK   75  A    between atoms: _186  and  _189
REMARK   76  A    between atoms: _189  and  _190
REMARK   77  A    between atoms: _193  and  _195
REMARK   78  A    between atoms: _195  and  _196
REMARK   79  A    between atoms: _195  and  _198
REMARK   80  A    between atoms: _198  and  _199
REMARK   81  A    between atoms: _204  and  _206
REMARK   82  A    between atoms: _206  and  _207
REMARK   83  A    between atoms: _206  and  _209
REMARK   84  A    between atoms: _209  and  _210
REMARK   85  A    between atoms: _210  and  ZN_362
REMARK   86  A    between atoms: _211  and  _213
REMARK   87  A    between atoms: _213  and  _214
REMARK   88  A    between atoms: _213  and  _216
REMARK   89  A    between atoms: _216  and  _217
REMARK   90  A    between atoms: _220  and  _222
REMARK   91  A    between atoms: _222  and  _223
REMARK   92  A    between atoms: _222  and  _225
REMARK   93  A    between atoms: _225  and  _226
REMARK   94  A    between atoms: _229  and  _231
REMARK   95  A    between atoms: _231  and  _232
REMARK   96  A    between atoms: _231  and  _234
REMARK   97  A    between atoms: _234  and  _235
REMARK   98  A    between atoms: _235  and  _236
REMARK   99  A    between atoms: _236  and  _237
REMARK  100  A    between atoms: _237  and  _238
REMARK  101  A    between atoms: _242  and  _244
REMARK  102  A    between atoms: _244  and  _245
REMARK  103  A    between atoms: _244  and  _247
REMARK  104  A    between atoms: _247  and  _248
REMARK  105  A    between atoms: _248  and  _249
REMARK  106  A    between atoms: _249  and  _250
REMARK  107  A    between atoms: _250  and  _251
REMARK  108  A    between atoms: _255  and  _257
REMARK  109  A    between atoms: _257  and  _258
REMARK  110  A    between atoms: _257  and  _260
REMARK  111  A    between atoms: _260  and  _261
REMARK  112  A    between atoms: _264  and  _266
REMARK  113  A    between atoms: _266  and  _267
REMARK  114  A    between atoms: _269  and  _271
REMARK  115  A    between atoms: _271  and  _272
REMARK  116  A    between atoms: _271  and  _274
REMARK  117  A    between atoms: _274  and  _275
REMARK  118  A    between atoms: _280  and  _282
REMARK  119  A    between atoms: _282  and  _283
REMARK  120  A    between atoms: _282  and  _285
REMARK  121  A    between atoms: _285  and  _286
REMARK  122  A    between atoms: _289  and  _291
REMARK  123  A    between atoms: _291  and  _292
REMARK  124  A    between atoms: _291  and  _294
REMARK  125  A    between atoms: _294  and  _295
REMARK  126  A    between atoms: _297  and  _299
REMARK  127  A    between atoms: _299  and  _300
REMARK  128  A    between atoms: _299  and  _302
REMARK  129  A    between atoms: _302  and  _303
REMARK  130  A    between atoms: _309  and  _311
REMARK  131  A    between atoms: _311  and  _312
REMARK  132  A    between atoms: _311  and  _314
REMARK  133  A    between atoms: _314  and  _315
REMARK  134  A    between atoms: _320  and  _321
REMARK  135  A    between atoms: _323  and  _325
REMARK  136  A    between atoms: _325  and  _326
REMARK  137  A    between atoms: _328  and  _330
REMARK  138  A    between atoms: _330  and  _331
REMARK  139  A    between atoms: _330  and  _333
REMARK  140  A    between atoms: _333  and  _334
REMARK  141  A    between atoms: _338  and  ZN_362
REMARK  142  A    between atoms: _339  and  _341
REMARK  143  A    between atoms: _341  and  _342
REMARK  144  A    between atoms: _341  and  _344
REMARK  145  A    between atoms: _344  and  _345
REMARK  146  A    between atoms: _348  and  _350
REMARK  147  A    between atoms: _350  and  _351
REMARK  148  A    between atoms: _350  and  _353
REMARK  149  A    between atoms: _353  and  _354
REMARK  150  A    between atoms: _359  and  _360
REMARK                            x       y       z     vdW  Elec       q    Type
REMARK                         _______ _______ _______ _____ _____    ______ ____
ROOT
ATOM      1  O   HOH     1      15.938  52.801  60.349  0.00  0.00    +0.000 OA
ENDROOT
TORSDOF 0
