REMARK  Name = ../refined-set-2016/3vdb/3vdb_pocket.pdb
REMARK  184 active torsions:
REMARK  status: ('A' for Active; 'I' for Inactive)
REMARK    1  A    between atoms: _1  and  _3
REMARK    2  A    between atoms: _3  and  _4
REMARK    3  A    between atoms: _3  and  _6
REMARK    4  A    between atoms: _6  and  _7
REMARK    5  A    between atoms: _12  and  _13
REMARK    6  A    between atoms: _15  and  _17
REMARK    7  A    between atoms: _17  and  _18
REMARK    8  A    between atoms: _17  and  _20
REMARK    9  A    between atoms: _20  and  _21
REMARK   10  A    between atoms: _24  and  _26
REMARK   11  A    between atoms: _26  and  _27
REMARK   12  A    between atoms: _26  and  _29
REMARK   13  A    between atoms: _29  and  _30
REMARK   14  A    between atoms: _35  and  _37
REMARK   15  A    between atoms: _37  and  _38
REMARK   16  A    between atoms: _37  and  _40
REMARK   17  A    between atoms: _43  and  _45
REMARK   18  A    between atoms: _45  and  _46
REMARK   19  A    between atoms: _45  and  _48
REMARK   20  A    between atoms: _48  and  _49
REMARK   21  A    between atoms: _52  and  _54
REMARK   22  A    between atoms: _54  and  _55
REMARK   23  A    between atoms: _54  and  _57
REMARK   24  A    between atoms: _57  and  _58
REMARK   25  A    between atoms: _58  and  _59
REMARK   26  A    between atoms: _64  and  _66
REMARK   27  A    between atoms: _66  and  _67
REMARK   28  A    between atoms: _66  and  _69
REMARK   29  A    between atoms: _69  and  _70
REMARK   30  A    between atoms: _73  and  _75
REMARK   31  A    between atoms: _75  and  _76
REMARK   32  A    between atoms: _75  and  _78
REMARK   33  A    between atoms: _78  and  _79
REMARK   34  A    between atoms: _79  and  _80
REMARK   35  A    between atoms: _82  and  _84
REMARK   36  A    between atoms: _84  and  _85
REMARK   37  A    between atoms: _84  and  _87
REMARK   38  A    between atoms: _87  and  _88
REMARK   39  A    between atoms: _88  and  _89
REMARK   40  A    between atoms: _89  and  _90
REMARK   41  A    between atoms: _99  and  _101
REMARK   42  A    between atoms: _101  and  _102
REMARK   43  A    between atoms: _101  and  _104
REMARK   44  A    between atoms: _104  and  _105
REMARK   45  A    between atoms: _110  and  _112
REMARK   46  A    between atoms: _112  and  _113
REMARK   47  A    between atoms: _112  and  _115
REMARK   48  A    between atoms: _115  and  _116
REMARK   49  A    between atoms: _121  and  _123
REMARK   50  A    between atoms: _123  and  _124
REMARK   51  A    between atoms: _123  and  _126
REMARK   52  A    between atoms: _126  and  _127
REMARK   53  A    between atoms: _127  and  _128
REMARK   54  A    between atoms: _128  and  _129
REMARK   55  A    between atoms: _138  and  _140
REMARK   56  A    between atoms: _140  and  _141
REMARK   57  A    between atoms: _140  and  _143
REMARK   58  A    between atoms: _143  and  _144
REMARK   59  A    between atoms: _146  and  _148
REMARK   60  A    between atoms: _148  and  _149
REMARK   61  A    between atoms: _148  and  _151
REMARK   62  A    between atoms: _151  and  _152
REMARK   63  A    between atoms: _157  and  _159
REMARK   64  A    between atoms: _159  and  _160
REMARK   65  A    between atoms: _159  and  _162
REMARK   66  A    between atoms: _162  and  _163
REMARK   67  A    between atoms: _163  and  _164
REMARK   68  A    between atoms: _167  and  _169
REMARK   69  A    between atoms: _169  and  _170
REMARK   70  A    between atoms: _169  and  _172
REMARK   71  A    between atoms: _172  and  _173
REMARK   72  A    between atoms: _173  and  _174
REMARK   73  A    between atoms: _174  and  _176
REMARK   74  A    between atoms: _176  and  MG_430
REMARK   75  A    between atoms: _177  and  _179
REMARK   76  A    between atoms: _179  and  _180
REMARK   77  A    between atoms: _179  and  _182
REMARK   78  A    between atoms: _182  and  _183
REMARK   79  A    between atoms: _188  and  _190
REMARK   80  A    between atoms: _190  and  _191
REMARK   81  A    between atoms: _193  and  _195
REMARK   82  A    between atoms: _195  and  _196
REMARK   83  A    between atoms: _195  and  _198
REMARK   84  A    between atoms: _198  and  _199
REMARK   85  A    between atoms: _202  and  _204
REMARK   86  A    between atoms: _204  and  _205
REMARK   87  A    between atoms: _204  and  _207
REMARK   88  A    between atoms: _207  and  _208
REMARK   89  A    between atoms: _208  and  _209
REMARK   90  A    between atoms: _209  and  _210
REMARK   91  A    between atoms: _210  and  MG_430
REMARK   92  A    between atoms: _212  and  _214
REMARK   93  A    between atoms: _214  and  _215
REMARK   94  A    between atoms: _214  and  _217
REMARK   95  A    between atoms: _217  and  _218
REMARK   96  A    between atoms: _218  and  _219
REMARK   97  A    between atoms: _222  and  _224
REMARK   98  A    between atoms: _224  and  _225
REMARK   99  A    between atoms: _224  and  _227
REMARK  100  A    between atoms: _227  and  _228
REMARK  101  A    between atoms: _228  and  _229
REMARK  102  A    between atoms: _231  and  _233
REMARK  103  A    between atoms: _233  and  _234
REMARK  104  A    between atoms: _233  and  _236
REMARK  105  A    between atoms: _236  and  _237
REMARK  106  A    between atoms: _242  and  _243
REMARK  107  A    between atoms: _245  and  _247
REMARK  108  A    between atoms: _247  and  _248
REMARK  109  A    between atoms: _247  and  _250
REMARK  110  A    between atoms: _250  and  _251
REMARK  111  A    between atoms: _251  and  _252
REMARK  112  A    between atoms: _252  and  _253
REMARK  113  A    between atoms: _253  and  _254
REMARK  114  A    between atoms: _258  and  _260
REMARK  115  A    between atoms: _260  and  _261
REMARK  116  A    between atoms: _260  and  _263
REMARK  117  A    between atoms: _265  and  _267
REMARK  118  A    between atoms: _267  and  _268
REMARK  119  A    between atoms: _267  and  _270
REMARK  120  A    between atoms: _270  and  _271
REMARK  121  A    between atoms: _271  and  _272
REMARK  122  A    between atoms: _275  and  _277
REMARK  123  A    between atoms: _277  and  _278
REMARK  124  A    between atoms: _277  and  _280
REMARK  125  A    between atoms: _280  and  _281
REMARK  126  A    between atoms: _286  and  _288
REMARK  127  A    between atoms: _288  and  _289
REMARK  128  A    between atoms: _292  and  _294
REMARK  129  A    between atoms: _294  and  _295
REMARK  130  A    between atoms: _294  and  _297
REMARK  131  A    between atoms: _297  and  _298
REMARK  132  A    between atoms: _298  and  _299
REMARK  133  A    between atoms: _301  and  _303
REMARK  134  A    between atoms: _303  and  _304
REMARK  135  A    between atoms: _303  and  _306
REMARK  136  A    between atoms: _306  and  _307
REMARK  137  A    between atoms: _317  and  _319
REMARK  138  A    between atoms: _319  and  _320
REMARK  139  A    between atoms: _319  and  _322
REMARK  140  A    between atoms: _322  and  _323
REMARK  141  A    between atoms: _326  and  _328
REMARK  142  A    between atoms: _328  and  _329
REMARK  143  A    between atoms: _328  and  _331
REMARK  144  A    between atoms: _331  and  _332
REMARK  145  A    between atoms: _332  and  _333
REMARK  146  A    between atoms: _338  and  _340
REMARK  147  A    between atoms: _340  and  _341
REMARK  148  A    between atoms: _340  and  _343
REMARK  149  A    between atoms: _343  and  _344
REMARK  150  A    between atoms: _344  and  _345
REMARK  151  A    between atoms: _350  and  _352
REMARK  152  A    between atoms: _352  and  _353
REMARK  153  A    between atoms: _352  and  _355
REMARK  154  A    between atoms: _355  and  _356
REMARK  155  A    between atoms: _362  and  _364
REMARK  156  A    between atoms: _364  and  _365
REMARK  157  A    between atoms: _364  and  _367
REMARK  158  A    between atoms: _369  and  _371
REMARK  159  A    between atoms: _371  and  _372
REMARK  160  A    between atoms: _371  and  _374
REMARK  161  A    between atoms: _374  and  _375
REMARK  162  A    between atoms: _375  and  _376
REMARK  163  A    between atoms: _378  and  _380
REMARK  164  A    between atoms: _380  and  _381
REMARK  165  A    between atoms: _380  and  _383
REMARK  166  A    between atoms: _383  and  _384
REMARK  167  A    between atoms: _384  and  _385
REMARK  168  A    between atoms: _384  and  _386
REMARK  169  A    between atoms: _389  and  _391
REMARK  170  A    between atoms: _391  and  _392
REMARK  171  A    between atoms: _391  and  _394
REMARK  172  A    between atoms: _394  and  _395
REMARK  173  A    between atoms: _397  and  _399
REMARK  174  A    between atoms: _399  and  _400
REMARK  175  A    between atoms: _399  and  _402
REMARK  176  A    between atoms: _402  and  _403
REMARK  177  A    between atoms: _406  and  _408
REMARK  178  A    between atoms: _408  and  _409
REMARK  179  A    between atoms: _408  and  _411
REMARK  180  A    between atoms: _411  and  _412
REMARK  181  A    between atoms: _414  and  _416
REMARK  182  A    between atoms: _416  and  _417
REMARK  183  A    between atoms: _416  and  _419
REMARK  184  A    between atoms: _419  and  _420
REMARK                            x       y       z     vdW  Elec       q    Type
REMARK                         _______ _______ _______ _____ _____    ______ ____
ROOT
ATOM      1  CA  THR A   2     -14.727 -38.985 -27.490  0.00  0.00    +0.176 C 
ENDROOT
BRANCH   1   3
ATOM      2  C   TYR A   1     -13.962 -40.179 -29.474  0.00  0.00    +0.239 C 
ATOM      3  N   THR A   2     -13.731 -39.732 -28.242  0.00  0.00    -0.295 N 
ATOM      4  H   THR A   2     -12.808 -39.923 -27.802  0.00  0.00    +0.150 HD
ATOM      5  O   TYR A   1     -15.071 -40.165 -30.004  0.00  0.00    -0.274 OA
BRANCH   2   6
ATOM      6  CA  TYR A   1     -12.739 -40.709 -30.218  0.00  0.00    +0.149 C 
BRANCH   6   7
ATOM      7  N   TYR A   1     -12.705 -42.166 -30.299  0.00  0.00    -0.238 NA
ATOM      8  H   TYR A   1     -13.312 -42.674 -30.973  0.00  0.00    +0.142 HD
ENDBRANCH   6   7
BRANCH   6   9
ATOM      9  CB  TYR A   1     -12.564 -39.986 -31.570  0.00  0.00    +0.053 C 
BRANCH   9  10
ATOM     10  CG  TYR A   1     -12.788 -38.507 -31.378  0.00  0.00    -0.020 A 
ATOM     11  CD2 TYR A   1     -11.974 -37.780 -30.506  0.00  0.00    -0.001 A 
ATOM     12  CE2 TYR A   1     -12.190 -36.442 -30.272  0.00  0.00    +0.036 A 
ATOM     13  CZ  TYR A   1     -13.240 -35.798 -30.904  0.00  0.00    +0.134 A 
ATOM     14  CE1 TYR A   1     -14.078 -36.494 -31.767  0.00  0.00    +0.036 A 
ATOM     15  CD1 TYR A   1     -13.854 -37.849 -31.993  0.00  0.00    -0.001 A 
BRANCH  13  16
ATOM     16  OH  TYR A   1     -13.439 -34.459 -30.657  0.00  0.00    -0.506 OA
ATOM     17  HH  TYR A   1     -12.751 -34.136 -30.023  0.00  0.00    +0.292 HD
ENDBRANCH  13  16
ENDBRANCH   9  10
ENDBRANCH   6   9
ENDBRANCH   2   6
ENDBRANCH   1   3
BRANCH   1  18
ATOM     18  C   THR A   2     -14.124 -37.677 -26.976  0.00  0.00    +0.243 C 
ATOM     19  O   THR A   2     -12.953 -37.624 -26.596  0.00  0.00    -0.273 OA
ATOM     20  N   ASN A   3     -14.932 -36.624 -27.010  0.00  0.00    -0.297 N 
ATOM     21  H   ASN A   3     -15.898 -36.747 -27.375  0.00  0.00    +0.150 HD
BRANCH  20  22
ATOM     22  CA  ASN A   3     -14.519 -35.308 -26.558  0.00  0.00    +0.158 C 
BRANCH  22  23
ATOM     23  C   ASN A   3     -14.610 -35.197 -25.032  0.00  0.00    +0.241 C 
ATOM     24  O   ASN A   3     -13.618 -35.429 -24.330  0.00  0.00    -0.273 OA
ATOM     25  N   VAL A   4     -15.799 -34.860 -24.532  0.00  0.00    -0.298 N 
ATOM     26  H   VAL A   4     -16.611 -34.785 -25.178  0.00  0.00    +0.150 HD
BRANCH  25  27
ATOM     27  CA  VAL A   4     -16.004 -34.592 -23.109  0.00  0.00    +0.137 C 
BRANCH  27  28
ATOM     28  CB  VAL A   4     -17.079 -33.481 -22.887  0.00  0.00    +0.026 C 
ATOM     29  CG2 VAL A   4     -17.417 -33.324 -21.414  0.00  0.00    +0.002 C 
ATOM     30  CG1 VAL A   4     -16.601 -32.162 -23.449  0.00  0.00    +0.002 C 
ENDBRANCH  27  28
BRANCH  27  31
ATOM     31  C   VAL A   4     -16.370 -35.861 -22.332  0.00  0.00    +0.227 C 
ATOM     32  O   VAL A   4     -15.730 -36.192 -21.330  0.00  0.00    -0.286 OA
ENDBRANCH  27  31
ENDBRANCH  25  27
ENDBRANCH  22  23
BRANCH  22  33
ATOM     33  CB  ASN A   3     -15.344 -34.214 -27.264  0.00  0.00    +0.114 C 
BRANCH  33  34
ATOM     34  CG  ASN A   3     -15.053 -32.810 -26.734  0.00  0.00    +0.222 C 
ATOM     35  OD1 ASN A   3     -14.116 -32.601 -25.960  0.00  0.00    -0.275 OA
ATOM     36  ND2 ASN A   3     -15.868 -31.844 -27.148  0.00  0.00    -0.329 N 
ATOM     37 HD21 ASN A   3     -15.727 -30.868 -26.818  0.00  0.00    +0.145 HD
ATOM     38 HD22 ASN A   3     -16.646 -32.065 -27.802  0.00  0.00    +0.145 HD
ENDBRANCH  33  34
ENDBRANCH  22  33
ENDBRANCH  20  22
ENDBRANCH   1  18
BRANCH   1  39
ATOM     39  CB  THR A   2     -15.353 -39.811 -26.342  0.00  0.00    +0.137 C 
ATOM     40  CG2 THR A   2     -14.272 -40.398 -25.407  0.00  0.00    +0.034 C 
BRANCH  39  41
ATOM     41  OG1 THR A   2     -16.251 -38.981 -25.594  0.00  0.00    -0.382 OA
ATOM     42  HG1 THR A   2     -16.652 -39.509 -24.859  0.00  0.00    +0.210 HD
ENDBRANCH  39  41
ENDBRANCH   1  39
TORSDOF 16
REMARK  Name = ../refined-set-2016/3vdb/3vdb_pocket.pdb
REMARK  184 active torsions:
REMARK  status: ('A' for Active; 'I' for Inactive)
REMARK    1  A    between atoms: _1  and  _3
REMARK    2  A    between atoms: _3  and  _4
REMARK    3  A    between atoms: _3  and  _6
REMARK    4  A    between atoms: _6  and  _7
REMARK    5  A    between atoms: _12  and  _13
REMARK    6  A    between atoms: _15  and  _17
REMARK    7  A    between atoms: _17  and  _18
REMARK    8  A    between atoms: _17  and  _20
REMARK    9  A    between atoms: _20  and  _21
REMARK   10  A    between atoms: _24  and  _26
REMARK   11  A    between atoms: _26  and  _27
REMARK   12  A    between atoms: _26  and  _29
REMARK   13  A    between atoms: _29  and  _30
REMARK   14  A    between atoms: _35  and  _37
REMARK   15  A    between atoms: _37  and  _38
REMARK   16  A    between atoms: _37  and  _40
REMARK   17  A    between atoms: _43  and  _45
REMARK   18  A    between atoms: _45  and  _46
REMARK   19  A    between atoms: _45  and  _48
REMARK   20  A    between atoms: _48  and  _49
REMARK   21  A    between atoms: _52  and  _54
REMARK   22  A    between atoms: _54  and  _55
REMARK   23  A    between atoms: _54  and  _57
REMARK   24  A    between atoms: _57  and  _58
REMARK   25  A    between atoms: _58  and  _59
REMARK   26  A    between atoms: _64  and  _66
REMARK   27  A    between atoms: _66  and  _67
REMARK   28  A    between atoms: _66  and  _69
REMARK   29  A    between atoms: _69  and  _70
REMARK   30  A    between atoms: _73  and  _75
REMARK   31  A    between atoms: _75  and  _76
REMARK   32  A    between atoms: _75  and  _78
REMARK   33  A    between atoms: _78  and  _79
REMARK   34  A    between atoms: _79  and  _80
REMARK   35  A    between atoms: _82  and  _84
REMARK   36  A    between atoms: _84  and  _85
REMARK   37  A    between atoms: _84  and  _87
REMARK   38  A    between atoms: _87  and  _88
REMARK   39  A    between atoms: _88  and  _89
REMARK   40  A    between atoms: _89  and  _90
REMARK   41  A    between atoms: _99  and  _101
REMARK   42  A    between atoms: _101  and  _102
REMARK   43  A    between atoms: _101  and  _104
REMARK   44  A    between atoms: _104  and  _105
REMARK   45  A    between atoms: _110  and  _112
REMARK   46  A    between atoms: _112  and  _113
REMARK   47  A    between atoms: _112  and  _115
REMARK   48  A    between atoms: _115  and  _116
REMARK   49  A    between atoms: _121  and  _123
REMARK   50  A    between atoms: _123  and  _124
REMARK   51  A    between atoms: _123  and  _126
REMARK   52  A    between atoms: _126  and  _127
REMARK   53  A    between atoms: _127  and  _128
REMARK   54  A    between atoms: _128  and  _129
REMARK   55  A    between atoms: _138  and  _140
REMARK   56  A    between atoms: _140  and  _141
REMARK   57  A    between atoms: _140  and  _143
REMARK   58  A    between atoms: _143  and  _144
REMARK   59  A    between atoms: _146  and  _148
REMARK   60  A    between atoms: _148  and  _149
REMARK   61  A    between atoms: _148  and  _151
REMARK   62  A    between atoms: _151  and  _152
REMARK   63  A    between atoms: _157  and  _159
REMARK   64  A    between atoms: _159  and  _160
REMARK   65  A    between atoms: _159  and  _162
REMARK   66  A    between atoms: _162  and  _163
REMARK   67  A    between atoms: _163  and  _164
REMARK   68  A    between atoms: _167  and  _169
REMARK   69  A    between atoms: _169  and  _170
REMARK   70  A    between atoms: _169  and  _172
REMARK   71  A    between atoms: _172  and  _173
REMARK   72  A    between atoms: _173  and  _174
REMARK   73  A    between atoms: _174  and  _176
REMARK   74  A    between atoms: _176  and  MG_430
REMARK   75  A    between atoms: _177  and  _179
REMARK   76  A    between atoms: _179  and  _180
REMARK   77  A    between atoms: _179  and  _182
REMARK   78  A    between atoms: _182  and  _183
REMARK   79  A    between atoms: _188  and  _190
REMARK   80  A    between atoms: _190  and  _191
REMARK   81  A    between atoms: _193  and  _195
REMARK   82  A    between atoms: _195  and  _196
REMARK   83  A    between atoms: _195  and  _198
REMARK   84  A    between atoms: _198  and  _199
REMARK   85  A    between atoms: _202  and  _204
REMARK   86  A    between atoms: _204  and  _205
REMARK   87  A    between atoms: _204  and  _207
REMARK   88  A    between atoms: _207  and  _208
REMARK   89  A    between atoms: _208  and  _209
REMARK   90  A    between atoms: _209  and  _210
REMARK   91  A    between atoms: _210  and  MG_430
REMARK   92  A    between atoms: _212  and  _214
REMARK   93  A    between atoms: _214  and  _215
REMARK   94  A    between atoms: _214  and  _217
REMARK   95  A    between atoms: _217  and  _218
REMARK   96  A    between atoms: _218  and  _219
REMARK   97  A    between atoms: _222  and  _224
REMARK   98  A    between atoms: _224  and  _225
REMARK   99  A    between atoms: _224  and  _227
REMARK  100  A    between atoms: _227  and  _228
REMARK  101  A    between atoms: _228  and  _229
REMARK  102  A    between atoms: _231  and  _233
REMARK  103  A    between atoms: _233  and  _234
REMARK  104  A    between atoms: _233  and  _236
REMARK  105  A    between atoms: _236  and  _237
REMARK  106  A    between atoms: _242  and  _243
REMARK  107  A    between atoms: _245  and  _247
REMARK  108  A    between atoms: _247  and  _248
REMARK  109  A    between atoms: _247  and  _250
REMARK  110  A    between atoms: _250  and  _251
REMARK  111  A    between atoms: _251  and  _252
REMARK  112  A    between atoms: _252  and  _253
REMARK  113  A    between atoms: _253  and  _254
REMARK  114  A    between atoms: _258  and  _260
REMARK  115  A    between atoms: _260  and  _261
REMARK  116  A    between atoms: _260  and  _263
REMARK  117  A    between atoms: _265  and  _267
REMARK  118  A    between atoms: _267  and  _268
REMARK  119  A    between atoms: _267  and  _270
REMARK  120  A    between atoms: _270  and  _271
REMARK  121  A    between atoms: _271  and  _272
REMARK  122  A    between atoms: _275  and  _277
REMARK  123  A    between atoms: _277  and  _278
REMARK  124  A    between atoms: _277  and  _280
REMARK  125  A    between atoms: _280  and  _281
REMARK  126  A    between atoms: _286  and  _288
REMARK  127  A    between atoms: _288  and  _289
REMARK  128  A    between atoms: _292  and  _294
REMARK  129  A    between atoms: _294  and  _295
REMARK  130  A    between atoms: _294  and  _297
REMARK  131  A    between atoms: _297  and  _298
REMARK  132  A    between atoms: _298  and  _299
REMARK  133  A    between atoms: _301  and  _303
REMARK  134  A    between atoms: _303  and  _304
REMARK  135  A    between atoms: _303  and  _306
REMARK  136  A    between atoms: _306  and  _307
REMARK  137  A    between atoms: _317  and  _319
REMARK  138  A    between atoms: _319  and  _320
REMARK  139  A    between atoms: _319  and  _322
REMARK  140  A    between atoms: _322  and  _323
REMARK  141  A    between atoms: _326  and  _328
REMARK  142  A    between atoms: _328  and  _329
REMARK  143  A    between atoms: _328  and  _331
REMARK  144  A    between atoms: _331  and  _332
REMARK  145  A    between atoms: _332  and  _333
REMARK  146  A    between atoms: _338  and  _340
REMARK  147  A    between atoms: _340  and  _341
REMARK  148  A    between atoms: _340  and  _343
REMARK  149  A    between atoms: _343  and  _344
REMARK  150  A    between atoms: _344  and  _345
REMARK  151  A    between atoms: _350  and  _352
REMARK  152  A    between atoms: _352  and  _353
REMARK  153  A    between atoms: _352  and  _355
REMARK  154  A    between atoms: _355  and  _356
REMARK  155  A    between atoms: _362  and  _364
REMARK  156  A    between atoms: _364  and  _365
REMARK  157  A    between atoms: _364  and  _367
REMARK  158  A    between atoms: _369  and  _371
REMARK  159  A    between atoms: _371  and  _372
REMARK  160  A    between atoms: _371  and  _374
REMARK  161  A    between atoms: _374  and  _375
REMARK  162  A    between atoms: _375  and  _376
REMARK  163  A    between atoms: _378  and  _380
REMARK  164  A    between atoms: _380  and  _381
REMARK  165  A    between atoms: _380  and  _383
REMARK  166  A    between atoms: _383  and  _384
REMARK  167  A    between atoms: _384  and  _385
REMARK  168  A    between atoms: _384  and  _386
REMARK  169  A    between atoms: _389  and  _391
REMARK  170  A    between atoms: _391  and  _392
REMARK  171  A    between atoms: _391  and  _394
REMARK  172  A    between atoms: _394  and  _395
REMARK  173  A    between atoms: _397  and  _399
REMARK  174  A    between atoms: _399  and  _400
REMARK  175  A    between atoms: _399  and  _402
REMARK  176  A    between atoms: _402  and  _403
REMARK  177  A    between atoms: _406  and  _408
REMARK  178  A    between atoms: _408  and  _409
REMARK  179  A    between atoms: _408  and  _411
REMARK  180  A    between atoms: _411  and  _412
REMARK  181  A    between atoms: _414  and  _416
REMARK  182  A    between atoms: _416  and  _417
REMARK  183  A    between atoms: _416  and  _419
REMARK  184  A    between atoms: _419  and  _420
REMARK                            x       y       z     vdW  Elec       q    Type
REMARK                         _______ _______ _______ _____ _____    ______ ____
ROOT
ATOM      1  C   GLN A   2      -9.284 -35.193 -24.361  0.00  0.00    +0.241 C 
ATOM      2  O   GLN A   2      -9.553 -36.365 -24.637  0.00  0.00    -0.273 OA
ATOM      3  N   ASP A   3      -9.705 -34.146 -25.069  0.00  0.00    -0.297 N 
ATOM      4  H   ASP A   3      -9.505 -33.193 -24.703  0.00  0.00    +0.150 HD
ENDROOT
BRANCH   3   5
ATOM      5  CA  ASP A   3     -10.432 -34.261 -26.332  0.00  0.00    +0.160 C 
BRANCH   5   6
ATOM      6  C   ASP A   3      -9.483 -34.735 -27.435  0.00  0.00    +0.241 C 
ATOM      7  N   MET A   4      -9.319 -36.052 -27.511  0.00  0.00    -0.298 N 
ATOM      8  H   MET A   4      -9.863 -36.657 -26.863  0.00  0.00    +0.150 HD
ATOM      9  O   ASP A   3      -8.920 -33.934 -28.194  0.00  0.00    -0.273 OA
BRANCH   7  10
ATOM     10  CA  MET A   4      -8.413 -36.690 -28.459  0.00  0.00    +0.138 C 
BRANCH  10  11
ATOM     11  C   MET A   4      -8.759 -38.167 -28.567  0.00  0.00    +0.227 C 
ATOM     12  O   MET A   4      -9.602 -38.657 -27.825  0.00  0.00    -0.286 OA
ENDBRANCH  10  11
BRANCH  10  13
ATOM     13  CB  MET A   4      -6.954 -36.534 -28.000  0.00  0.00    +0.039 C 
BRANCH  13  14
ATOM     14  CG  MET A   4      -6.649 -37.159 -26.640  0.00  0.00    +0.060 C 
BRANCH  14  15
ATOM     15  SD  MET A   4      -4.966 -36.754 -26.124  0.00  0.00    -0.139 S 
ATOM     16  CE  MET A   4      -4.669 -37.940 -24.819  0.00  0.00    +0.069 C 
ENDBRANCH  14  15
ENDBRANCH  13  14
ENDBRANCH  10  13
ENDBRANCH   7  10
ENDBRANCH   5   6
BRANCH   5  17
ATOM     17  CB  ASP A   3     -11.065 -32.907 -26.698  0.00  0.00    +0.143 C 
BRANCH  17  18
ATOM     18  CG  ASP A   3     -11.807 -32.927 -28.041  0.00  0.00    +0.367 C 
ATOM     19  OD2 ASP A   3     -12.194 -34.016 -28.502  0.00  0.00    -0.246 OA
ATOM     20  OD1 ASP A   3     -12.001 -31.845 -28.639  0.00  0.00    -0.246 OA
ENDBRANCH  17  18
ENDBRANCH   5  17
ENDBRANCH   3   5
BRANCH   1  21
ATOM     21  CA  GLN A   2      -8.427 -34.859 -23.145  0.00  0.00    +0.149 C 
BRANCH  21  24
ATOM     22  C   ASP A   1      -9.904 -35.785 -21.426  0.00  0.00    +0.239 C 
ATOM     23  O   ASP A   1     -10.847 -35.041 -21.751  0.00  0.00    -0.274 OA
ATOM     24  N   GLN A   2      -8.704 -35.736 -22.007  0.00  0.00    -0.297 N 
ATOM     25  H   GLN A   2      -7.941 -36.340 -21.639  0.00  0.00    +0.150 HD
BRANCH  22  26
ATOM     26  CA  ASP A   1     -10.078 -36.833 -20.318  0.00  0.00    +0.156 C 
BRANCH  26  27
ATOM     27  N   ASP A   1      -8.896 -37.010 -19.474  0.00  0.00    -0.238 NA
ATOM     28  H   ASP A   1      -8.755 -36.367 -18.669  0.00  0.00    +0.142 HD
ENDBRANCH  26  27
BRANCH  26  29
ATOM     29  CB  ASP A   1     -11.301 -36.502 -19.453  0.00  0.00    +0.140 C 
BRANCH  29  30
ATOM     30  CG  ASP A   1     -12.606 -36.653 -20.205  0.00  0.00    +0.367 C 
ATOM     31  OD2 ASP A   1     -13.537 -35.862 -19.929  0.00  0.00    -0.246 OA
ATOM     32  OD1 ASP A   1     -12.696 -37.555 -21.072  0.00  0.00    -0.246 OA
ENDBRANCH  29  30
ENDBRANCH  26  29
ENDBRANCH  22  26
ENDBRANCH  21  24
BRANCH  21  33
ATOM     33  CB  GLN A   2      -6.951 -34.913 -23.538  0.00  0.00    +0.039 C 
BRANCH  33  34
ATOM     34  CG  GLN A   2      -6.006 -34.204 -22.564  0.00  0.00    +0.087 C 
BRANCH  34  35
ATOM     35  CD  GLN A   2      -5.499 -35.108 -21.450  0.00  0.00    +0.219 C 
ATOM     36  NE2 GLN A   2      -4.493 -34.633 -20.703  0.00  0.00    -0.329 N 
ATOM     37 HE21 GLN A   2      -4.106 -35.207 -19.927  0.00  0.00    +0.145 HD
ATOM     38 HE22 GLN A   2      -4.099 -33.691 -20.900  0.00  0.00    +0.145 HD
ATOM     39  OE1 GLN A   2      -6.001 -36.216 -21.260  0.00  0.00    -0.275 OA
ENDBRANCH  34  35
ENDBRANCH  33  34
ENDBRANCH  21  33
ENDBRANCH   1  21
TORSDOF 18
REMARK  Name = ../refined-set-2016/3vdb/3vdb_pocket.pdb
REMARK  184 active torsions:
REMARK  status: ('A' for Active; 'I' for Inactive)
REMARK    1  A    between atoms: _1  and  _3
REMARK    2  A    between atoms: _3  and  _4
REMARK    3  A    between atoms: _3  and  _6
REMARK    4  A    between atoms: _6  and  _7
REMARK    5  A    between atoms: _12  and  _13
REMARK    6  A    between atoms: _15  and  _17
REMARK    7  A    between atoms: _17  and  _18
REMARK    8  A    between atoms: _17  and  _20
REMARK    9  A    between atoms: _20  and  _21
REMARK   10  A    between atoms: _24  and  _26
REMARK   11  A    between atoms: _26  and  _27
REMARK   12  A    between atoms: _26  and  _29
REMARK   13  A    between atoms: _29  and  _30
REMARK   14  A    between atoms: _35  and  _37
REMARK   15  A    between atoms: _37  and  _38
REMARK   16  A    between atoms: _37  and  _40
REMARK   17  A    between atoms: _43  and  _45
REMARK   18  A    between atoms: _45  and  _46
REMARK   19  A    between atoms: _45  and  _48
REMARK   20  A    between atoms: _48  and  _49
REMARK   21  A    between atoms: _52  and  _54
REMARK   22  A    between atoms: _54  and  _55
REMARK   23  A    between atoms: _54  and  _57
REMARK   24  A    between atoms: _57  and  _58
REMARK   25  A    between atoms: _58  and  _59
REMARK   26  A    between atoms: _64  and  _66
REMARK   27  A    between atoms: _66  and  _67
REMARK   28  A    between atoms: _66  and  _69
REMARK   29  A    between atoms: _69  and  _70
REMARK   30  A    between atoms: _73  and  _75
REMARK   31  A    between atoms: _75  and  _76
REMARK   32  A    between atoms: _75  and  _78
REMARK   33  A    between atoms: _78  and  _79
REMARK   34  A    between atoms: _79  and  _80
REMARK   35  A    between atoms: _82  and  _84
REMARK   36  A    between atoms: _84  and  _85
REMARK   37  A    between atoms: _84  and  _87
REMARK   38  A    between atoms: _87  and  _88
REMARK   39  A    between atoms: _88  and  _89
REMARK   40  A    between atoms: _89  and  _90
REMARK   41  A    between atoms: _99  and  _101
REMARK   42  A    between atoms: _101  and  _102
REMARK   43  A    between atoms: _101  and  _104
REMARK   44  A    between atoms: _104  and  _105
REMARK   45  A    between atoms: _110  and  _112
REMARK   46  A    between atoms: _112  and  _113
REMARK   47  A    between atoms: _112  and  _115
REMARK   48  A    between atoms: _115  and  _116
REMARK   49  A    between atoms: _121  and  _123
REMARK   50  A    between atoms: _123  and  _124
REMARK   51  A    between atoms: _123  and  _126
REMARK   52  A    between atoms: _126  and  _127
REMARK   53  A    between atoms: _127  and  _128
REMARK   54  A    between atoms: _128  and  _129
REMARK   55  A    between atoms: _138  and  _140
REMARK   56  A    between atoms: _140  and  _141
REMARK   57  A    between atoms: _140  and  _143
REMARK   58  A    between atoms: _143  and  _144
REMARK   59  A    between atoms: _146  and  _148
REMARK   60  A    between atoms: _148  and  _149
REMARK   61  A    between atoms: _148  and  _151
REMARK   62  A    between atoms: _151  and  _152
REMARK   63  A    between atoms: _157  and  _159
REMARK   64  A    between atoms: _159  and  _160
REMARK   65  A    between atoms: _159  and  _162
REMARK   66  A    between atoms: _162  and  _163
REMARK   67  A    between atoms: _163  and  _164
REMARK   68  A    between atoms: _167  and  _169
REMARK   69  A    between atoms: _169  and  _170
REMARK   70  A    between atoms: _169  and  _172
REMARK   71  A    between atoms: _172  and  _173
REMARK   72  A    between atoms: _173  and  _174
REMARK   73  A    between atoms: _174  and  _176
REMARK   74  A    between atoms: _176  and  MG_430
REMARK   75  A    between atoms: _177  and  _179
REMARK   76  A    between atoms: _179  and  _180
REMARK   77  A    between atoms: _179  and  _182
REMARK   78  A    between atoms: _182  and  _183
REMARK   79  A    between atoms: _188  and  _190
REMARK   80  A    between atoms: _190  and  _191
REMARK   81  A    between atoms: _193  and  _195
REMARK   82  A    between atoms: _195  and  _196
REMARK   83  A    between atoms: _195  and  _198
REMARK   84  A    between atoms: _198  and  _199
REMARK   85  A    between atoms: _202  and  _204
REMARK   86  A    between atoms: _204  and  _205
REMARK   87  A    between atoms: _204  and  _207
REMARK   88  A    between atoms: _207  and  _208
REMARK   89  A    between atoms: _208  and  _209
REMARK   90  A    between atoms: _209  and  _210
REMARK   91  A    between atoms: _210  and  MG_430
REMARK   92  A    between atoms: _212  and  _214
REMARK   93  A    between atoms: _214  and  _215
REMARK   94  A    between atoms: _214  and  _217
REMARK   95  A    between atoms: _217  and  _218
REMARK   96  A    between atoms: _218  and  _219
REMARK   97  A    between atoms: _222  and  _224
REMARK   98  A    between atoms: _224  and  _225
REMARK   99  A    between atoms: _224  and  _227
REMARK  100  A    between atoms: _227  and  _228
REMARK  101  A    between atoms: _228  and  _229
REMARK  102  A    between atoms: _231  and  _233
REMARK  103  A    between atoms: _233  and  _234
REMARK  104  A    between atoms: _233  and  _236
REMARK  105  A    between atoms: _236  and  _237
REMARK  106  A    between atoms: _242  and  _243
REMARK  107  A    between atoms: _245  and  _247
REMARK  108  A    between atoms: _247  and  _248
REMARK  109  A    between atoms: _247  and  _250
REMARK  110  A    between atoms: _250  and  _251
REMARK  111  A    between atoms: _251  and  _252
REMARK  112  A    between atoms: _252  and  _253
REMARK  113  A    between atoms: _253  and  _254
REMARK  114  A    between atoms: _258  and  _260
REMARK  115  A    between atoms: _260  and  _261
REMARK  116  A    between atoms: _260  and  _263
REMARK  117  A    between atoms: _265  and  _267
REMARK  118  A    between atoms: _267  and  _268
REMARK  119  A    between atoms: _267  and  _270
REMARK  120  A    between atoms: _270  and  _271
REMARK  121  A    between atoms: _271  and  _272
REMARK  122  A    between atoms: _275  and  _277
REMARK  123  A    between atoms: _277  and  _278
REMARK  124  A    between atoms: _277  and  _280
REMARK  125  A    between atoms: _280  and  _281
REMARK  126  A    between atoms: _286  and  _288
REMARK  127  A    between atoms: _288  and  _289
REMARK  128  A    between atoms: _292  and  _294
REMARK  129  A    between atoms: _294  and  _295
REMARK  130  A    between atoms: _294  and  _297
REMARK  131  A    between atoms: _297  and  _298
REMARK  132  A    between atoms: _298  and  _299
REMARK  133  A    between atoms: _301  and  _303
REMARK  134  A    between atoms: _303  and  _304
REMARK  135  A    between atoms: _303  and  _306
REMARK  136  A    between atoms: _306  and  _307
REMARK  137  A    between atoms: _317  and  _319
REMARK  138  A    between atoms: _319  and  _320
REMARK  139  A    between atoms: _319  and  _322
REMARK  140  A    between atoms: _322  and  _323
REMARK  141  A    between atoms: _326  and  _328
REMARK  142  A    between atoms: _328  and  _329
REMARK  143  A    between atoms: _328  and  _331
REMARK  144  A    between atoms: _331  and  _332
REMARK  145  A    between atoms: _332  and  _333
REMARK  146  A    between atoms: _338  and  _340
REMARK  147  A    between atoms: _340  and  _341
REMARK  148  A    between atoms: _340  and  _343
REMARK  149  A    between atoms: _343  and  _344
REMARK  150  A    between atoms: _344  and  _345
REMARK  151  A    between atoms: _350  and  _352
REMARK  152  A    between atoms: _352  and  _353
REMARK  153  A    between atoms: _352  and  _355
REMARK  154  A    between atoms: _355  and  _356
REMARK  155  A    between atoms: _362  and  _364
REMARK  156  A    between atoms: _364  and  _365
REMARK  157  A    between atoms: _364  and  _367
REMARK  158  A    between atoms: _369  and  _371
REMARK  159  A    between atoms: _371  and  _372
REMARK  160  A    between atoms: _371  and  _374
REMARK  161  A    between atoms: _374  and  _375
REMARK  162  A    between atoms: _375  and  _376
REMARK  163  A    between atoms: _378  and  _380
REMARK  164  A    between atoms: _380  and  _381
REMARK  165  A    between atoms: _380  and  _383
REMARK  166  A    between atoms: _383  and  _384
REMARK  167  A    between atoms: _384  and  _385
REMARK  168  A    between atoms: _384  and  _386
REMARK  169  A    between atoms: _389  and  _391
REMARK  170  A    between atoms: _391  and  _392
REMARK  171  A    between atoms: _391  and  _394
REMARK  172  A    between atoms: _394  and  _395
REMARK  173  A    between atoms: _397  and  _399
REMARK  174  A    between atoms: _399  and  _400
REMARK  175  A    between atoms: _399  and  _402
REMARK  176  A    between atoms: _402  and  _403
REMARK  177  A    between atoms: _406  and  _408
REMARK  178  A    between atoms: _408  and  _409
REMARK  179  A    between atoms: _408  and  _411
REMARK  180  A    between atoms: _411  and  _412
REMARK  181  A    between atoms: _414  and  _416
REMARK  182  A    between atoms: _416  and  _417
REMARK  183  A    between atoms: _416  and  _419
REMARK  184  A    between atoms: _419  and  _420
REMARK                            x       y       z     vdW  Elec       q    Type
REMARK                         _______ _______ _______ _____ _____    ______ ____
ROOT
ATOM      1  NE  ARG A   1     -10.742 -39.346 -24.955  0.00  0.00    -0.265 N 
ATOM      2  CZ  ARG A   1     -11.324 -38.898 -23.843  0.00  0.00    +0.342 C 
ATOM      3  NH2 ARG A   1     -11.060 -39.462 -22.669  0.00  0.00    -0.292 N 
ATOM      4 HH21 ARG A   1     -11.519 -39.106 -21.806  0.00  0.00    +0.255 HD
ATOM      5 HH22 ARG A   1     -10.395 -40.259 -22.613  0.00  0.00    +0.255 HD
ATOM      6  NH1 ARG A   1     -12.165 -37.869 -23.899  0.00  0.00    -0.292 N 
ATOM      7 HH11 ARG A   1     -12.619 -37.520 -23.031  0.00  0.00    +0.255 HD
ATOM      8 HH12 ARG A   1     -12.369 -37.413 -24.811  0.00  0.00    +0.255 HD
ATOM      9  HE  ARG A   1     -10.976 -38.866 -25.848  0.00  0.00    +0.259 HD
ENDROOT
BRANCH   1  10
ATOM     10  CD  ARG A   1      -9.793 -40.469 -25.014  0.00  0.00    +0.174 C 
BRANCH  10  11
ATOM     11  CG  ARG A   1     -10.440 -41.753 -25.545  0.00  0.00    +0.045 C 
BRANCH  11  12
ATOM     12  CB  ARG A   1      -9.450 -42.931 -25.705  0.00  0.00    +0.029 C 
BRANCH  12  13
ATOM     13  CA  ARG A   1      -8.220 -42.664 -26.594  0.00  0.00    +0.133 C 
BRANCH  13  14
ATOM     14  N   ARG A   1      -8.575 -41.909 -27.784  0.00  0.00    -0.239 NA
ATOM     15  H   ARG A   1      -9.473 -42.119 -28.265  0.00  0.00    +0.142 HD
ENDBRANCH  13  14
BRANCH  13  16
ATOM     16  C   ARG A   1      -7.559 -43.962 -27.054  0.00  0.00    +0.224 C 
ATOM     17  O   ARG A   1      -8.208 -44.831 -27.652  0.00  0.00    -0.287 OA
ENDBRANCH  13  16
ENDBRANCH  12  13
ENDBRANCH  11  12
ENDBRANCH  10  11
ENDBRANCH   1  10
TORSDOF 6
REMARK  Name = ../refined-set-2016/3vdb/3vdb_pocket.pdb
REMARK  184 active torsions:
REMARK  status: ('A' for Active; 'I' for Inactive)
REMARK    1  A    between atoms: _1  and  _3
REMARK    2  A    between atoms: _3  and  _4
REMARK    3  A    between atoms: _3  and  _6
REMARK    4  A    between atoms: _6  and  _7
REMARK    5  A    between atoms: _12  and  _13
REMARK    6  A    between atoms: _15  and  _17
REMARK    7  A    between atoms: _17  and  _18
REMARK    8  A    between atoms: _17  and  _20
REMARK    9  A    between atoms: _20  and  _21
REMARK   10  A    between atoms: _24  and  _26
REMARK   11  A    between atoms: _26  and  _27
REMARK   12  A    between atoms: _26  and  _29
REMARK   13  A    between atoms: _29  and  _30
REMARK   14  A    between atoms: _35  and  _37
REMARK   15  A    between atoms: _37  and  _38
REMARK   16  A    between atoms: _37  and  _40
REMARK   17  A    between atoms: _43  and  _45
REMARK   18  A    between atoms: _45  and  _46
REMARK   19  A    between atoms: _45  and  _48
REMARK   20  A    between atoms: _48  and  _49
REMARK   21  A    between atoms: _52  and  _54
REMARK   22  A    between atoms: _54  and  _55
REMARK   23  A    between atoms: _54  and  _57
REMARK   24  A    between atoms: _57  and  _58
REMARK   25  A    between atoms: _58  and  _59
REMARK   26  A    between atoms: _64  and  _66
REMARK   27  A    between atoms: _66  and  _67
REMARK   28  A    between atoms: _66  and  _69
REMARK   29  A    between atoms: _69  and  _70
REMARK   30  A    between atoms: _73  and  _75
REMARK   31  A    between atoms: _75  and  _76
REMARK   32  A    between atoms: _75  and  _78
REMARK   33  A    between atoms: _78  and  _79
REMARK   34  A    between atoms: _79  and  _80
REMARK   35  A    between atoms: _82  and  _84
REMARK   36  A    between atoms: _84  and  _85
REMARK   37  A    between atoms: _84  and  _87
REMARK   38  A    between atoms: _87  and  _88
REMARK   39  A    between atoms: _88  and  _89
REMARK   40  A    between atoms: _89  and  _90
REMARK   41  A    between atoms: _99  and  _101
REMARK   42  A    between atoms: _101  and  _102
REMARK   43  A    between atoms: _101  and  _104
REMARK   44  A    between atoms: _104  and  _105
REMARK   45  A    between atoms: _110  and  _112
REMARK   46  A    between atoms: _112  and  _113
REMARK   47  A    between atoms: _112  and  _115
REMARK   48  A    between atoms: _115  and  _116
REMARK   49  A    between atoms: _121  and  _123
REMARK   50  A    between atoms: _123  and  _124
REMARK   51  A    between atoms: _123  and  _126
REMARK   52  A    between atoms: _126  and  _127
REMARK   53  A    between atoms: _127  and  _128
REMARK   54  A    between atoms: _128  and  _129
REMARK   55  A    between atoms: _138  and  _140
REMARK   56  A    between atoms: _140  and  _141
REMARK   57  A    between atoms: _140  and  _143
REMARK   58  A    between atoms: _143  and  _144
REMARK   59  A    between atoms: _146  and  _148
REMARK   60  A    between atoms: _148  and  _149
REMARK   61  A    between atoms: _148  and  _151
REMARK   62  A    between atoms: _151  and  _152
REMARK   63  A    between atoms: _157  and  _159
REMARK   64  A    between atoms: _159  and  _160
REMARK   65  A    between atoms: _159  and  _162
REMARK   66  A    between atoms: _162  and  _163
REMARK   67  A    between atoms: _163  and  _164
REMARK   68  A    between atoms: _167  and  _169
REMARK   69  A    between atoms: _169  and  _170
REMARK   70  A    between atoms: _169  and  _172
REMARK   71  A    between atoms: _172  and  _173
REMARK   72  A    between atoms: _173  and  _174
REMARK   73  A    between atoms: _174  and  _176
REMARK   74  A    between atoms: _176  and  MG_430
REMARK   75  A    between atoms: _177  and  _179
REMARK   76  A    between atoms: _179  and  _180
REMARK   77  A    between atoms: _179  and  _182
REMARK   78  A    between atoms: _182  and  _183
REMARK   79  A    between atoms: _188  and  _190
REMARK   80  A    between atoms: _190  and  _191
REMARK   81  A    between atoms: _193  and  _195
REMARK   82  A    between atoms: _195  and  _196
REMARK   83  A    between atoms: _195  and  _198
REMARK   84  A    between atoms: _198  and  _199
REMARK   85  A    between atoms: _202  and  _204
REMARK   86  A    between atoms: _204  and  _205
REMARK   87  A    between atoms: _204  and  _207
REMARK   88  A    between atoms: _207  and  _208
REMARK   89  A    between atoms: _208  and  _209
REMARK   90  A    between atoms: _209  and  _210
REMARK   91  A    between atoms: _210  and  MG_430
REMARK   92  A    between atoms: _212  and  _214
REMARK   93  A    between atoms: _214  and  _215
REMARK   94  A    between atoms: _214  and  _217
REMARK   95  A    between atoms: _217  and  _218
REMARK   96  A    between atoms: _218  and  _219
REMARK   97  A    between atoms: _222  and  _224
REMARK   98  A    between atoms: _224  and  _225
REMARK   99  A    between atoms: _224  and  _227
REMARK  100  A    between atoms: _227  and  _228
REMARK  101  A    between atoms: _228  and  _229
REMARK  102  A    between atoms: _231  and  _233
REMARK  103  A    between atoms: _233  and  _234
REMARK  104  A    between atoms: _233  and  _236
REMARK  105  A    between atoms: _236  and  _237
REMARK  106  A    between atoms: _242  and  _243
REMARK  107  A    between atoms: _245  and  _247
REMARK  108  A    between atoms: _247  and  _248
REMARK  109  A    between atoms: _247  and  _250
REMARK  110  A    between atoms: _250  and  _251
REMARK  111  A    between atoms: _251  and  _252
REMARK  112  A    between atoms: _252  and  _253
REMARK  113  A    between atoms: _253  and  _254
REMARK  114  A    between atoms: _258  and  _260
REMARK  115  A    between atoms: _260  and  _261
REMARK  116  A    between atoms: _260  and  _263
REMARK  117  A    between atoms: _265  and  _267
REMARK  118  A    between atoms: _267  and  _268
REMARK  119  A    between atoms: _267  and  _270
REMARK  120  A    between atoms: _270  and  _271
REMARK  121  A    between atoms: _271  and  _272
REMARK  122  A    between atoms: _275  and  _277
REMARK  123  A    between atoms: _277  and  _278
REMARK  124  A    between atoms: _277  and  _280
REMARK  125  A    between atoms: _280  and  _281
REMARK  126  A    between atoms: _286  and  _288
REMARK  127  A    between atoms: _288  and  _289
REMARK  128  A    between atoms: _292  and  _294
REMARK  129  A    between atoms: _294  and  _295
REMARK  130  A    between atoms: _294  and  _297
REMARK  131  A    between atoms: _297  and  _298
REMARK  132  A    between atoms: _298  and  _299
REMARK  133  A    between atoms: _301  and  _303
REMARK  134  A    between atoms: _303  and  _304
REMARK  135  A    between atoms: _303  and  _306
REMARK  136  A    between atoms: _306  and  _307
REMARK  137  A    between atoms: _317  and  _319
REMARK  138  A    between atoms: _319  and  _320
REMARK  139  A    between atoms: _319  and  _322
REMARK  140  A    between atoms: _322  and  _323
REMARK  141  A    between atoms: _326  and  _328
REMARK  142  A    between atoms: _328  and  _329
REMARK  143  A    between atoms: _328  and  _331
REMARK  144  A    between atoms: _331  and  _332
REMARK  145  A    between atoms: _332  and  _333
REMARK  146  A    between atoms: _338  and  _340
REMARK  147  A    between atoms: _340  and  _341
REMARK  148  A    between atoms: _340  and  _343
REMARK  149  A    between atoms: _343  and  _344
REMARK  150  A    between atoms: _344  and  _345
REMARK  151  A    between atoms: _350  and  _352
REMARK  152  A    between atoms: _352  and  _353
REMARK  153  A    between atoms: _352  and  _355
REMARK  154  A    between atoms: _355  and  _356
REMARK  155  A    between atoms: _362  and  _364
REMARK  156  A    between atoms: _364  and  _365
REMARK  157  A    between atoms: _364  and  _367
REMARK  158  A    between atoms: _369  and  _371
REMARK  159  A    between atoms: _371  and  _372
REMARK  160  A    between atoms: _371  and  _374
REMARK  161  A    between atoms: _374  and  _375
REMARK  162  A    between atoms: _375  and  _376
REMARK  163  A    between atoms: _378  and  _380
REMARK  164  A    between atoms: _380  and  _381
REMARK  165  A    between atoms: _380  and  _383
REMARK  166  A    between atoms: _383  and  _384
REMARK  167  A    between atoms: _384  and  _385
REMARK  168  A    between atoms: _384  and  _386
REMARK  169  A    between atoms: _389  and  _391
REMARK  170  A    between atoms: _391  and  _392
REMARK  171  A    between atoms: _391  and  _394
REMARK  172  A    between atoms: _394  and  _395
REMARK  173  A    between atoms: _397  and  _399
REMARK  174  A    between atoms: _399  and  _400
REMARK  175  A    between atoms: _399  and  _402
REMARK  176  A    between atoms: _402  and  _403
REMARK  177  A    between atoms: _406  and  _408
REMARK  178  A    between atoms: _408  and  _409
REMARK  179  A    between atoms: _408  and  _411
REMARK  180  A    between atoms: _411  and  _412
REMARK  181  A    between atoms: _414  and  _416
REMARK  182  A    between atoms: _416  and  _417
REMARK  183  A    between atoms: _416  and  _419
REMARK  184  A    between atoms: _419  and  _420
REMARK                            x       y       z     vdW  Elec       q    Type
REMARK                         _______ _______ _______ _____ _____    ______ ____
ROOT
ATOM      1  CB  ASN A   1      -3.325 -25.926 -28.975  0.00  0.00    +0.110 C 
ENDROOT
BRANCH   1   2
ATOM      2  CG  ASN A   1      -3.674 -25.022 -27.818  0.00  0.00    +0.221 C 
ATOM      3  OD1 ASN A   1      -3.415 -25.355 -26.671  0.00  0.00    -0.275 OA
ATOM      4  ND2 ASN A   1      -4.280 -23.875 -28.114  0.00  0.00    -0.329 N 
ATOM      5 HD21 ASN A   1      -4.553 -23.220 -27.354  0.00  0.00    +0.145 HD
ATOM      6 HD22 ASN A   1      -4.480 -23.633 -29.106  0.00  0.00    +0.145 HD
ENDBRANCH   1   2
BRANCH   1   7
ATOM      7  CA  ASN A   1      -1.916 -25.689 -29.502  0.00  0.00    +0.142 C 
BRANCH   7   8
ATOM      8  N   ASN A   1      -1.866 -24.462 -30.274  0.00  0.00    -0.239 NA
ATOM      9  H   ASN A   1      -2.746 -24.090 -30.685  0.00  0.00    +0.142 HD
ENDBRANCH   7   8
BRANCH   7  10
ATOM     10  C   ASN A   1      -1.515 -26.844 -30.404  0.00  0.00    +0.225 C 
ATOM     11  O   ASN A   1      -1.942 -26.903 -31.553  0.00  0.00    -0.287 OA
ENDBRANCH   7  10
ENDBRANCH   1   7
TORSDOF 4
REMARK  Name = ../refined-set-2016/3vdb/3vdb_pocket.pdb
REMARK  184 active torsions:
REMARK  status: ('A' for Active; 'I' for Inactive)
REMARK    1  A    between atoms: _1  and  _3
REMARK    2  A    between atoms: _3  and  _4
REMARK    3  A    between atoms: _3  and  _6
REMARK    4  A    between atoms: _6  and  _7
REMARK    5  A    between atoms: _12  and  _13
REMARK    6  A    between atoms: _15  and  _17
REMARK    7  A    between atoms: _17  and  _18
REMARK    8  A    between atoms: _17  and  _20
REMARK    9  A    between atoms: _20  and  _21
REMARK   10  A    between atoms: _24  and  _26
REMARK   11  A    between atoms: _26  and  _27
REMARK   12  A    between atoms: _26  and  _29
REMARK   13  A    between atoms: _29  and  _30
REMARK   14  A    between atoms: _35  and  _37
REMARK   15  A    between atoms: _37  and  _38
REMARK   16  A    between atoms: _37  and  _40
REMARK   17  A    between atoms: _43  and  _45
REMARK   18  A    between atoms: _45  and  _46
REMARK   19  A    between atoms: _45  and  _48
REMARK   20  A    between atoms: _48  and  _49
REMARK   21  A    between atoms: _52  and  _54
REMARK   22  A    between atoms: _54  and  _55
REMARK   23  A    between atoms: _54  and  _57
REMARK   24  A    between atoms: _57  and  _58
REMARK   25  A    between atoms: _58  and  _59
REMARK   26  A    between atoms: _64  and  _66
REMARK   27  A    between atoms: _66  and  _67
REMARK   28  A    between atoms: _66  and  _69
REMARK   29  A    between atoms: _69  and  _70
REMARK   30  A    between atoms: _73  and  _75
REMARK   31  A    between atoms: _75  and  _76
REMARK   32  A    between atoms: _75  and  _78
REMARK   33  A    between atoms: _78  and  _79
REMARK   34  A    between atoms: _79  and  _80
REMARK   35  A    between atoms: _82  and  _84
REMARK   36  A    between atoms: _84  and  _85
REMARK   37  A    between atoms: _84  and  _87
REMARK   38  A    between atoms: _87  and  _88
REMARK   39  A    between atoms: _88  and  _89
REMARK   40  A    between atoms: _89  and  _90
REMARK   41  A    between atoms: _99  and  _101
REMARK   42  A    between atoms: _101  and  _102
REMARK   43  A    between atoms: _101  and  _104
REMARK   44  A    between atoms: _104  and  _105
REMARK   45  A    between atoms: _110  and  _112
REMARK   46  A    between atoms: _112  and  _113
REMARK   47  A    between atoms: _112  and  _115
REMARK   48  A    between atoms: _115  and  _116
REMARK   49  A    between atoms: _121  and  _123
REMARK   50  A    between atoms: _123  and  _124
REMARK   51  A    between atoms: _123  and  _126
REMARK   52  A    between atoms: _126  and  _127
REMARK   53  A    between atoms: _127  and  _128
REMARK   54  A    between atoms: _128  and  _129
REMARK   55  A    between atoms: _138  and  _140
REMARK   56  A    between atoms: _140  and  _141
REMARK   57  A    between atoms: _140  and  _143
REMARK   58  A    between atoms: _143  and  _144
REMARK   59  A    between atoms: _146  and  _148
REMARK   60  A    between atoms: _148  and  _149
REMARK   61  A    between atoms: _148  and  _151
REMARK   62  A    between atoms: _151  and  _152
REMARK   63  A    between atoms: _157  and  _159
REMARK   64  A    between atoms: _159  and  _160
REMARK   65  A    between atoms: _159  and  _162
REMARK   66  A    between atoms: _162  and  _163
REMARK   67  A    between atoms: _163  and  _164
REMARK   68  A    between atoms: _167  and  _169
REMARK   69  A    between atoms: _169  and  _170
REMARK   70  A    between atoms: _169  and  _172
REMARK   71  A    between atoms: _172  and  _173
REMARK   72  A    between atoms: _173  and  _174
REMARK   73  A    between atoms: _174  and  _176
REMARK   74  A    between atoms: _176  and  MG_430
REMARK   75  A    between atoms: _177  and  _179
REMARK   76  A    between atoms: _179  and  _180
REMARK   77  A    between atoms: _179  and  _182
REMARK   78  A    between atoms: _182  and  _183
REMARK   79  A    between atoms: _188  and  _190
REMARK   80  A    between atoms: _190  and  _191
REMARK   81  A    between atoms: _193  and  _195
REMARK   82  A    between atoms: _195  and  _196
REMARK   83  A    between atoms: _195  and  _198
REMARK   84  A    between atoms: _198  and  _199
REMARK   85  A    between atoms: _202  and  _204
REMARK   86  A    between atoms: _204  and  _205
REMARK   87  A    between atoms: _204  and  _207
REMARK   88  A    between atoms: _207  and  _208
REMARK   89  A    between atoms: _208  and  _209
REMARK   90  A    between atoms: _209  and  _210
REMARK   91  A    between atoms: _210  and  MG_430
REMARK   92  A    between atoms: _212  and  _214
REMARK   93  A    between atoms: _214  and  _215
REMARK   94  A    between atoms: _214  and  _217
REMARK   95  A    between atoms: _217  and  _218
REMARK   96  A    between atoms: _218  and  _219
REMARK   97  A    between atoms: _222  and  _224
REMARK   98  A    between atoms: _224  and  _225
REMARK   99  A    between atoms: _224  and  _227
REMARK  100  A    between atoms: _227  and  _228
REMARK  101  A    between atoms: _228  and  _229
REMARK  102  A    between atoms: _231  and  _233
REMARK  103  A    between atoms: _233  and  _234
REMARK  104  A    between atoms: _233  and  _236
REMARK  105  A    between atoms: _236  and  _237
REMARK  106  A    between atoms: _242  and  _243
REMARK  107  A    between atoms: _245  and  _247
REMARK  108  A    between atoms: _247  and  _248
REMARK  109  A    between atoms: _247  and  _250
REMARK  110  A    between atoms: _250  and  _251
REMARK  111  A    between atoms: _251  and  _252
REMARK  112  A    between atoms: _252  and  _253
REMARK  113  A    between atoms: _253  and  _254
REMARK  114  A    between atoms: _258  and  _260
REMARK  115  A    between atoms: _260  and  _261
REMARK  116  A    between atoms: _260  and  _263
REMARK  117  A    between atoms: _265  and  _267
REMARK  118  A    between atoms: _267  and  _268
REMARK  119  A    between atoms: _267  and  _270
REMARK  120  A    between atoms: _270  and  _271
REMARK  121  A    between atoms: _271  and  _272
REMARK  122  A    between atoms: _275  and  _277
REMARK  123  A    between atoms: _277  and  _278
REMARK  124  A    between atoms: _277  and  _280
REMARK  125  A    between atoms: _280  and  _281
REMARK  126  A    between atoms: _286  and  _288
REMARK  127  A    between atoms: _288  and  _289
REMARK  128  A    between atoms: _292  and  _294
REMARK  129  A    between atoms: _294  and  _295
REMARK  130  A    between atoms: _294  and  _297
REMARK  131  A    between atoms: _297  and  _298
REMARK  132  A    between atoms: _298  and  _299
REMARK  133  A    between atoms: _301  and  _303
REMARK  134  A    between atoms: _303  and  _304
REMARK  135  A    between atoms: _303  and  _306
REMARK  136  A    between atoms: _306  and  _307
REMARK  137  A    between atoms: _317  and  _319
REMARK  138  A    between atoms: _319  and  _320
REMARK  139  A    between atoms: _319  and  _322
REMARK  140  A    between atoms: _322  and  _323
REMARK  141  A    between atoms: _326  and  _328
REMARK  142  A    between atoms: _328  and  _329
REMARK  143  A    between atoms: _328  and  _331
REMARK  144  A    between atoms: _331  and  _332
REMARK  145  A    between atoms: _332  and  _333
REMARK  146  A    between atoms: _338  and  _340
REMARK  147  A    between atoms: _340  and  _341
REMARK  148  A    between atoms: _340  and  _343
REMARK  149  A    between atoms: _343  and  _344
REMARK  150  A    between atoms: _344  and  _345
REMARK  151  A    between atoms: _350  and  _352
REMARK  152  A    between atoms: _352  and  _353
REMARK  153  A    between atoms: _352  and  _355
REMARK  154  A    between atoms: _355  and  _356
REMARK  155  A    between atoms: _362  and  _364
REMARK  156  A    between atoms: _364  and  _365
REMARK  157  A    between atoms: _364  and  _367
REMARK  158  A    between atoms: _369  and  _371
REMARK  159  A    between atoms: _371  and  _372
REMARK  160  A    between atoms: _371  and  _374
REMARK  161  A    between atoms: _374  and  _375
REMARK  162  A    between atoms: _375  and  _376
REMARK  163  A    between atoms: _378  and  _380
REMARK  164  A    between atoms: _380  and  _381
REMARK  165  A    between atoms: _380  and  _383
REMARK  166  A    between atoms: _383  and  _384
REMARK  167  A    between atoms: _384  and  _385
REMARK  168  A    between atoms: _384  and  _386
REMARK  169  A    between atoms: _389  and  _391
REMARK  170  A    between atoms: _391  and  _392
REMARK  171  A    between atoms: _391  and  _394
REMARK  172  A    between atoms: _394  and  _395
REMARK  173  A    between atoms: _397  and  _399
REMARK  174  A    between atoms: _399  and  _400
REMARK  175  A    between atoms: _399  and  _402
REMARK  176  A    between atoms: _402  and  _403
REMARK  177  A    between atoms: _406  and  _408
REMARK  178  A    between atoms: _408  and  _409
REMARK  179  A    between atoms: _408  and  _411
REMARK  180  A    between atoms: _411  and  _412
REMARK  181  A    between atoms: _414  and  _416
REMARK  182  A    between atoms: _416  and  _417
REMARK  183  A    between atoms: _416  and  _419
REMARK  184  A    between atoms: _419  and  _420
REMARK                            x       y       z     vdW  Elec       q    Type
REMARK                         _______ _______ _______ _____ _____    ______ ____
ROOT
ATOM      1  CB  HIS A   1      -2.626 -33.063 -30.096  0.00  0.00    +0.072 C 
ENDROOT
BRANCH   1   2
ATOM      2  CG  HIS A   1      -3.660 -32.930 -29.028  0.00  0.00    +0.082 A 
ATOM      3  ND1 HIS A   1      -3.602 -33.639 -27.846  0.00  0.00    -0.227 NA
ATOM      4  CE1 HIS A   1      -4.647 -33.327 -27.099  0.00  0.00    +0.199 A 
ATOM      5  NE2 HIS A   1      -5.383 -32.450 -27.757  0.00  0.00    -0.221 NA
ATOM      6  CD2 HIS A   1      -4.791 -32.187 -28.969  0.00  0.00    +0.115 A 
ENDBRANCH   1   2
BRANCH   1   7
ATOM      7  CA  HIS A   1      -1.282 -32.426 -29.744  0.00  0.00    +0.139 C 
BRANCH   7   8
ATOM      8  N   HIS A   1      -1.235 -31.058 -30.241  0.00  0.00    -0.239 NA
ATOM      9  H   HIS A   1      -1.951 -30.755 -30.932  0.00  0.00    +0.142 HD
ENDBRANCH   7   8
BRANCH   7  10
ATOM     10  C   HIS A   1      -0.197 -33.252 -30.420  0.00  0.00    +0.224 C 
ATOM     11  O   HIS A   1       0.234 -32.929 -31.525  0.00  0.00    -0.287 OA
ENDBRANCH   7  10
ENDBRANCH   1   7
TORSDOF 4
REMARK  Name = ../refined-set-2016/3vdb/3vdb_pocket.pdb
REMARK  184 active torsions:
REMARK  status: ('A' for Active; 'I' for Inactive)
REMARK    1  A    between atoms: _1  and  _3
REMARK    2  A    between atoms: _3  and  _4
REMARK    3  A    between atoms: _3  and  _6
REMARK    4  A    between atoms: _6  and  _7
REMARK    5  A    between atoms: _12  and  _13
REMARK    6  A    between atoms: _15  and  _17
REMARK    7  A    between atoms: _17  and  _18
REMARK    8  A    between atoms: _17  and  _20
REMARK    9  A    between atoms: _20  and  _21
REMARK   10  A    between atoms: _24  and  _26
REMARK   11  A    between atoms: _26  and  _27
REMARK   12  A    between atoms: _26  and  _29
REMARK   13  A    between atoms: _29  and  _30
REMARK   14  A    between atoms: _35  and  _37
REMARK   15  A    between atoms: _37  and  _38
REMARK   16  A    between atoms: _37  and  _40
REMARK   17  A    between atoms: _43  and  _45
REMARK   18  A    between atoms: _45  and  _46
REMARK   19  A    between atoms: _45  and  _48
REMARK   20  A    between atoms: _48  and  _49
REMARK   21  A    between atoms: _52  and  _54
REMARK   22  A    between atoms: _54  and  _55
REMARK   23  A    between atoms: _54  and  _57
REMARK   24  A    between atoms: _57  and  _58
REMARK   25  A    between atoms: _58  and  _59
REMARK   26  A    between atoms: _64  and  _66
REMARK   27  A    between atoms: _66  and  _67
REMARK   28  A    between atoms: _66  and  _69
REMARK   29  A    between atoms: _69  and  _70
REMARK   30  A    between atoms: _73  and  _75
REMARK   31  A    between atoms: _75  and  _76
REMARK   32  A    between atoms: _75  and  _78
REMARK   33  A    between atoms: _78  and  _79
REMARK   34  A    between atoms: _79  and  _80
REMARK   35  A    between atoms: _82  and  _84
REMARK   36  A    between atoms: _84  and  _85
REMARK   37  A    between atoms: _84  and  _87
REMARK   38  A    between atoms: _87  and  _88
REMARK   39  A    between atoms: _88  and  _89
REMARK   40  A    between atoms: _89  and  _90
REMARK   41  A    between atoms: _99  and  _101
REMARK   42  A    between atoms: _101  and  _102
REMARK   43  A    between atoms: _101  and  _104
REMARK   44  A    between atoms: _104  and  _105
REMARK   45  A    between atoms: _110  and  _112
REMARK   46  A    between atoms: _112  and  _113
REMARK   47  A    between atoms: _112  and  _115
REMARK   48  A    between atoms: _115  and  _116
REMARK   49  A    between atoms: _121  and  _123
REMARK   50  A    between atoms: _123  and  _124
REMARK   51  A    between atoms: _123  and  _126
REMARK   52  A    between atoms: _126  and  _127
REMARK   53  A    between atoms: _127  and  _128
REMARK   54  A    between atoms: _128  and  _129
REMARK   55  A    between atoms: _138  and  _140
REMARK   56  A    between atoms: _140  and  _141
REMARK   57  A    between atoms: _140  and  _143
REMARK   58  A    between atoms: _143  and  _144
REMARK   59  A    between atoms: _146  and  _148
REMARK   60  A    between atoms: _148  and  _149
REMARK   61  A    between atoms: _148  and  _151
REMARK   62  A    between atoms: _151  and  _152
REMARK   63  A    between atoms: _157  and  _159
REMARK   64  A    between atoms: _159  and  _160
REMARK   65  A    between atoms: _159  and  _162
REMARK   66  A    between atoms: _162  and  _163
REMARK   67  A    between atoms: _163  and  _164
REMARK   68  A    between atoms: _167  and  _169
REMARK   69  A    between atoms: _169  and  _170
REMARK   70  A    between atoms: _169  and  _172
REMARK   71  A    between atoms: _172  and  _173
REMARK   72  A    between atoms: _173  and  _174
REMARK   73  A    between atoms: _174  and  _176
REMARK   74  A    between atoms: _176  and  MG_430
REMARK   75  A    between atoms: _177  and  _179
REMARK   76  A    between atoms: _179  and  _180
REMARK   77  A    between atoms: _179  and  _182
REMARK   78  A    between atoms: _182  and  _183
REMARK   79  A    between atoms: _188  and  _190
REMARK   80  A    between atoms: _190  and  _191
REMARK   81  A    between atoms: _193  and  _195
REMARK   82  A    between atoms: _195  and  _196
REMARK   83  A    between atoms: _195  and  _198
REMARK   84  A    between atoms: _198  and  _199
REMARK   85  A    between atoms: _202  and  _204
REMARK   86  A    between atoms: _204  and  _205
REMARK   87  A    between atoms: _204  and  _207
REMARK   88  A    between atoms: _207  and  _208
REMARK   89  A    between atoms: _208  and  _209
REMARK   90  A    between atoms: _209  and  _210
REMARK   91  A    between atoms: _210  and  MG_430
REMARK   92  A    between atoms: _212  and  _214
REMARK   93  A    between atoms: _214  and  _215
REMARK   94  A    between atoms: _214  and  _217
REMARK   95  A    between atoms: _217  and  _218
REMARK   96  A    between atoms: _218  and  _219
REMARK   97  A    between atoms: _222  and  _224
REMARK   98  A    between atoms: _224  and  _225
REMARK   99  A    between atoms: _224  and  _227
REMARK  100  A    between atoms: _227  and  _228
REMARK  101  A    between atoms: _228  and  _229
REMARK  102  A    between atoms: _231  and  _233
REMARK  103  A    between atoms: _233  and  _234
REMARK  104  A    between atoms: _233  and  _236
REMARK  105  A    between atoms: _236  and  _237
REMARK  106  A    between atoms: _242  and  _243
REMARK  107  A    between atoms: _245  and  _247
REMARK  108  A    between atoms: _247  and  _248
REMARK  109  A    between atoms: _247  and  _250
REMARK  110  A    between atoms: _250  and  _251
REMARK  111  A    between atoms: _251  and  _252
REMARK  112  A    between atoms: _252  and  _253
REMARK  113  A    between atoms: _253  and  _254
REMARK  114  A    between atoms: _258  and  _260
REMARK  115  A    between atoms: _260  and  _261
REMARK  116  A    between atoms: _260  and  _263
REMARK  117  A    between atoms: _265  and  _267
REMARK  118  A    between atoms: _267  and  _268
REMARK  119  A    between atoms: _267  and  _270
REMARK  120  A    between atoms: _270  and  _271
REMARK  121  A    between atoms: _271  and  _272
REMARK  122  A    between atoms: _275  and  _277
REMARK  123  A    between atoms: _277  and  _278
REMARK  124  A    between atoms: _277  and  _280
REMARK  125  A    between atoms: _280  and  _281
REMARK  126  A    between atoms: _286  and  _288
REMARK  127  A    between atoms: _288  and  _289
REMARK  128  A    between atoms: _292  and  _294
REMARK  129  A    between atoms: _294  and  _295
REMARK  130  A    between atoms: _294  and  _297
REMARK  131  A    between atoms: _297  and  _298
REMARK  132  A    between atoms: _298  and  _299
REMARK  133  A    between atoms: _301  and  _303
REMARK  134  A    between atoms: _303  and  _304
REMARK  135  A    between atoms: _303  and  _306
REMARK  136  A    between atoms: _306  and  _307
REMARK  137  A    between atoms: _317  and  _319
REMARK  138  A    between atoms: _319  and  _320
REMARK  139  A    between atoms: _319  and  _322
REMARK  140  A    between atoms: _322  and  _323
REMARK  141  A    between atoms: _326  and  _328
REMARK  142  A    between atoms: _328  and  _329
REMARK  143  A    between atoms: _328  and  _331
REMARK  144  A    between atoms: _331  and  _332
REMARK  145  A    between atoms: _332  and  _333
REMARK  146  A    between atoms: _338  and  _340
REMARK  147  A    between atoms: _340  and  _341
REMARK  148  A    between atoms: _340  and  _343
REMARK  149  A    between atoms: _343  and  _344
REMARK  150  A    between atoms: _344  and  _345
REMARK  151  A    between atoms: _350  and  _352
REMARK  152  A    between atoms: _352  and  _353
REMARK  153  A    between atoms: _352  and  _355
REMARK  154  A    between atoms: _355  and  _356
REMARK  155  A    between atoms: _362  and  _364
REMARK  156  A    between atoms: _364  and  _365
REMARK  157  A    between atoms: _364  and  _367
REMARK  158  A    between atoms: _369  and  _371
REMARK  159  A    between atoms: _371  and  _372
REMARK  160  A    between atoms: _371  and  _374
REMARK  161  A    between atoms: _374  and  _375
REMARK  162  A    between atoms: _375  and  _376
REMARK  163  A    between atoms: _378  and  _380
REMARK  164  A    between atoms: _380  and  _381
REMARK  165  A    between atoms: _380  and  _383
REMARK  166  A    between atoms: _383  and  _384
REMARK  167  A    between atoms: _384  and  _385
REMARK  168  A    between atoms: _384  and  _386
REMARK  169  A    between atoms: _389  and  _391
REMARK  170  A    between atoms: _391  and  _392
REMARK  171  A    between atoms: _391  and  _394
REMARK  172  A    between atoms: _394  and  _395
REMARK  173  A    between atoms: _397  and  _399
REMARK  174  A    between atoms: _399  and  _400
REMARK  175  A    between atoms: _399  and  _402
REMARK  176  A    between atoms: _402  and  _403
REMARK  177  A    between atoms: _406  and  _408
REMARK  178  A    between atoms: _408  and  _409
REMARK  179  A    between atoms: _408  and  _411
REMARK  180  A    between atoms: _411  and  _412
REMARK  181  A    between atoms: _414  and  _416
REMARK  182  A    between atoms: _416  and  _417
REMARK  183  A    between atoms: _416  and  _419
REMARK  184  A    between atoms: _419  and  _420
REMARK                            x       y       z     vdW  Elec       q    Type
REMARK                         _______ _______ _______ _____ _____    ______ ____
ROOT
ATOM      1  NE  ARG A   1      -2.849 -24.936 -22.883  0.00  0.00    -0.265 N 
ATOM      2  HE  ARG A   1      -2.345 -25.193 -22.010  0.00  0.00    +0.259 HD
ATOM      3  CZ  ARG A   1      -4.153 -25.199 -22.944  0.00  0.00    +0.342 C 
ATOM      4  NH2 ARG A   1      -4.762 -25.761 -21.905  0.00  0.00    -0.292 N 
ATOM      5 HH21 ARG A   1      -4.220 -25.994 -21.048  0.00  0.00    +0.255 HD
ATOM      6 HH22 ARG A   1      -5.780 -25.968 -21.949  0.00  0.00    +0.255 HD
ATOM      7  NH1 ARG A   1      -4.854 -24.896 -24.031  0.00  0.00    -0.292 N 
ATOM      8 HH11 ARG A   1      -5.872 -25.106 -24.068  0.00  0.00    +0.255 HD
ATOM      9 HH12 ARG A   1      -4.385 -24.449 -24.845  0.00  0.00    +0.255 HD
ENDROOT
BRANCH   1  10
ATOM     10  CD  ARG A   1      -2.074 -24.312 -23.955  0.00  0.00    +0.174 C 
BRANCH  10  11
ATOM     11  CG  ARG A   1      -0.917 -25.174 -24.451  0.00  0.00    +0.045 C 
BRANCH  11  12
ATOM     12  CB  ARG A   1      -0.204 -24.507 -25.647  0.00  0.00    +0.029 C 
BRANCH  12  13
ATOM     13  CA  ARG A   1       1.178 -25.089 -25.990  0.00  0.00    +0.133 C 
BRANCH  13  14
ATOM     14  N   ARG A   1       1.699 -24.543 -27.244  0.00  0.00    -0.239 NA
ATOM     15  H   ARG A   1       1.099 -24.569 -28.093  0.00  0.00    +0.142 HD
ENDBRANCH  13  14
BRANCH  13  16
ATOM     16  C   ARG A   1       1.117 -26.608 -26.074  0.00  0.00    +0.224 C 
ATOM     17  O   ARG A   1       0.558 -27.167 -27.027  0.00  0.00    -0.287 OA
ENDBRANCH  13  16
ENDBRANCH  12  13
ENDBRANCH  11  12
ENDBRANCH  10  11
ENDBRANCH   1  10
TORSDOF 6
REMARK  Name = ../refined-set-2016/3vdb/3vdb_pocket.pdb
REMARK  184 active torsions:
REMARK  status: ('A' for Active; 'I' for Inactive)
REMARK    1  A    between atoms: _1  and  _3
REMARK    2  A    between atoms: _3  and  _4
REMARK    3  A    between atoms: _3  and  _6
REMARK    4  A    between atoms: _6  and  _7
REMARK    5  A    between atoms: _12  and  _13
REMARK    6  A    between atoms: _15  and  _17
REMARK    7  A    between atoms: _17  and  _18
REMARK    8  A    between atoms: _17  and  _20
REMARK    9  A    between atoms: _20  and  _21
REMARK   10  A    between atoms: _24  and  _26
REMARK   11  A    between atoms: _26  and  _27
REMARK   12  A    between atoms: _26  and  _29
REMARK   13  A    between atoms: _29  and  _30
REMARK   14  A    between atoms: _35  and  _37
REMARK   15  A    between atoms: _37  and  _38
REMARK   16  A    between atoms: _37  and  _40
REMARK   17  A    between atoms: _43  and  _45
REMARK   18  A    between atoms: _45  and  _46
REMARK   19  A    between atoms: _45  and  _48
REMARK   20  A    between atoms: _48  and  _49
REMARK   21  A    between atoms: _52  and  _54
REMARK   22  A    between atoms: _54  and  _55
REMARK   23  A    between atoms: _54  and  _57
REMARK   24  A    between atoms: _57  and  _58
REMARK   25  A    between atoms: _58  and  _59
REMARK   26  A    between atoms: _64  and  _66
REMARK   27  A    between atoms: _66  and  _67
REMARK   28  A    between atoms: _66  and  _69
REMARK   29  A    between atoms: _69  and  _70
REMARK   30  A    between atoms: _73  and  _75
REMARK   31  A    between atoms: _75  and  _76
REMARK   32  A    between atoms: _75  and  _78
REMARK   33  A    between atoms: _78  and  _79
REMARK   34  A    between atoms: _79  and  _80
REMARK   35  A    between atoms: _82  and  _84
REMARK   36  A    between atoms: _84  and  _85
REMARK   37  A    between atoms: _84  and  _87
REMARK   38  A    between atoms: _87  and  _88
REMARK   39  A    between atoms: _88  and  _89
REMARK   40  A    between atoms: _89  and  _90
REMARK   41  A    between atoms: _99  and  _101
REMARK   42  A    between atoms: _101  and  _102
REMARK   43  A    between atoms: _101  and  _104
REMARK   44  A    between atoms: _104  and  _105
REMARK   45  A    between atoms: _110  and  _112
REMARK   46  A    between atoms: _112  and  _113
REMARK   47  A    between atoms: _112  and  _115
REMARK   48  A    between atoms: _115  and  _116
REMARK   49  A    between atoms: _121  and  _123
REMARK   50  A    between atoms: _123  and  _124
REMARK   51  A    between atoms: _123  and  _126
REMARK   52  A    between atoms: _126  and  _127
REMARK   53  A    between atoms: _127  and  _128
REMARK   54  A    between atoms: _128  and  _129
REMARK   55  A    between atoms: _138  and  _140
REMARK   56  A    between atoms: _140  and  _141
REMARK   57  A    between atoms: _140  and  _143
REMARK   58  A    between atoms: _143  and  _144
REMARK   59  A    between atoms: _146  and  _148
REMARK   60  A    between atoms: _148  and  _149
REMARK   61  A    between atoms: _148  and  _151
REMARK   62  A    between atoms: _151  and  _152
REMARK   63  A    between atoms: _157  and  _159
REMARK   64  A    between atoms: _159  and  _160
REMARK   65  A    between atoms: _159  and  _162
REMARK   66  A    between atoms: _162  and  _163
REMARK   67  A    between atoms: _163  and  _164
REMARK   68  A    between atoms: _167  and  _169
REMARK   69  A    between atoms: _169  and  _170
REMARK   70  A    between atoms: _169  and  _172
REMARK   71  A    between atoms: _172  and  _173
REMARK   72  A    between atoms: _173  and  _174
REMARK   73  A    between atoms: _174  and  _176
REMARK   74  A    between atoms: _176  and  MG_430
REMARK   75  A    between atoms: _177  and  _179
REMARK   76  A    between atoms: _179  and  _180
REMARK   77  A    between atoms: _179  and  _182
REMARK   78  A    between atoms: _182  and  _183
REMARK   79  A    between atoms: _188  and  _190
REMARK   80  A    between atoms: _190  and  _191
REMARK   81  A    between atoms: _193  and  _195
REMARK   82  A    between atoms: _195  and  _196
REMARK   83  A    between atoms: _195  and  _198
REMARK   84  A    between atoms: _198  and  _199
REMARK   85  A    between atoms: _202  and  _204
REMARK   86  A    between atoms: _204  and  _205
REMARK   87  A    between atoms: _204  and  _207
REMARK   88  A    between atoms: _207  and  _208
REMARK   89  A    between atoms: _208  and  _209
REMARK   90  A    between atoms: _209  and  _210
REMARK   91  A    between atoms: _210  and  MG_430
REMARK   92  A    between atoms: _212  and  _214
REMARK   93  A    between atoms: _214  and  _215
REMARK   94  A    between atoms: _214  and  _217
REMARK   95  A    between atoms: _217  and  _218
REMARK   96  A    between atoms: _218  and  _219
REMARK   97  A    between atoms: _222  and  _224
REMARK   98  A    between atoms: _224  and  _225
REMARK   99  A    between atoms: _224  and  _227
REMARK  100  A    between atoms: _227  and  _228
REMARK  101  A    between atoms: _228  and  _229
REMARK  102  A    between atoms: _231  and  _233
REMARK  103  A    between atoms: _233  and  _234
REMARK  104  A    between atoms: _233  and  _236
REMARK  105  A    between atoms: _236  and  _237
REMARK  106  A    between atoms: _242  and  _243
REMARK  107  A    between atoms: _245  and  _247
REMARK  108  A    between atoms: _247  and  _248
REMARK  109  A    between atoms: _247  and  _250
REMARK  110  A    between atoms: _250  and  _251
REMARK  111  A    between atoms: _251  and  _252
REMARK  112  A    between atoms: _252  and  _253
REMARK  113  A    between atoms: _253  and  _254
REMARK  114  A    between atoms: _258  and  _260
REMARK  115  A    between atoms: _260  and  _261
REMARK  116  A    between atoms: _260  and  _263
REMARK  117  A    between atoms: _265  and  _267
REMARK  118  A    between atoms: _267  and  _268
REMARK  119  A    between atoms: _267  and  _270
REMARK  120  A    between atoms: _270  and  _271
REMARK  121  A    between atoms: _271  and  _272
REMARK  122  A    between atoms: _275  and  _277
REMARK  123  A    between atoms: _277  and  _278
REMARK  124  A    between atoms: _277  and  _280
REMARK  125  A    between atoms: _280  and  _281
REMARK  126  A    between atoms: _286  and  _288
REMARK  127  A    between atoms: _288  and  _289
REMARK  128  A    between atoms: _292  and  _294
REMARK  129  A    between atoms: _294  and  _295
REMARK  130  A    between atoms: _294  and  _297
REMARK  131  A    between atoms: _297  and  _298
REMARK  132  A    between atoms: _298  and  _299
REMARK  133  A    between atoms: _301  and  _303
REMARK  134  A    between atoms: _303  and  _304
REMARK  135  A    between atoms: _303  and  _306
REMARK  136  A    between atoms: _306  and  _307
REMARK  137  A    between atoms: _317  and  _319
REMARK  138  A    between atoms: _319  and  _320
REMARK  139  A    between atoms: _319  and  _322
REMARK  140  A    between atoms: _322  and  _323
REMARK  141  A    between atoms: _326  and  _328
REMARK  142  A    between atoms: _328  and  _329
REMARK  143  A    between atoms: _328  and  _331
REMARK  144  A    between atoms: _331  and  _332
REMARK  145  A    between atoms: _332  and  _333
REMARK  146  A    between atoms: _338  and  _340
REMARK  147  A    between atoms: _340  and  _341
REMARK  148  A    between atoms: _340  and  _343
REMARK  149  A    between atoms: _343  and  _344
REMARK  150  A    between atoms: _344  and  _345
REMARK  151  A    between atoms: _350  and  _352
REMARK  152  A    between atoms: _352  and  _353
REMARK  153  A    between atoms: _352  and  _355
REMARK  154  A    between atoms: _355  and  _356
REMARK  155  A    between atoms: _362  and  _364
REMARK  156  A    between atoms: _364  and  _365
REMARK  157  A    between atoms: _364  and  _367
REMARK  158  A    between atoms: _369  and  _371
REMARK  159  A    between atoms: _371  and  _372
REMARK  160  A    between atoms: _371  and  _374
REMARK  161  A    between atoms: _374  and  _375
REMARK  162  A    between atoms: _375  and  _376
REMARK  163  A    between atoms: _378  and  _380
REMARK  164  A    between atoms: _380  and  _381
REMARK  165  A    between atoms: _380  and  _383
REMARK  166  A    between atoms: _383  and  _384
REMARK  167  A    between atoms: _384  and  _385
REMARK  168  A    between atoms: _384  and  _386
REMARK  169  A    between atoms: _389  and  _391
REMARK  170  A    between atoms: _391  and  _392
REMARK  171  A    between atoms: _391  and  _394
REMARK  172  A    between atoms: _394  and  _395
REMARK  173  A    between atoms: _397  and  _399
REMARK  174  A    between atoms: _399  and  _400
REMARK  175  A    between atoms: _399  and  _402
REMARK  176  A    between atoms: _402  and  _403
REMARK  177  A    between atoms: _406  and  _408
REMARK  178  A    between atoms: _408  and  _409
REMARK  179  A    between atoms: _408  and  _411
REMARK  180  A    between atoms: _411  and  _412
REMARK  181  A    between atoms: _414  and  _416
REMARK  182  A    between atoms: _416  and  _417
REMARK  183  A    between atoms: _416  and  _419
REMARK  184  A    between atoms: _419  and  _420
REMARK                            x       y       z     vdW  Elec       q    Type
REMARK                         _______ _______ _______ _____ _____    ______ ____
ROOT
ATOM      1  C   SER A   1      -2.190 -30.989 -25.137  0.00  0.00    +0.241 C 
ATOM      2  N   HIS A   2      -2.527 -31.671 -24.039  0.00  0.00    -0.298 N 
ATOM      3  H   HIS A   2      -2.718 -32.687 -24.154  0.00  0.00    +0.150 HD
ATOM      4  O   SER A   1      -1.949 -31.558 -26.192  0.00  0.00    -0.274 OA
ENDROOT
BRANCH   1   5
ATOM      5  CA  SER A   1      -2.060 -29.464 -25.057  0.00  0.00    +0.174 C 
BRANCH   5   6
ATOM      6  N   SER A   1      -0.701 -29.044 -25.363  0.00  0.00    -0.236 NA
ATOM      7  H   SER A   1      -0.504 -28.602 -26.284  0.00  0.00    +0.142 HD
ENDBRANCH   5   6
BRANCH   5   8
ATOM      8  CB  SER A   1      -3.040 -28.800 -26.028  0.00  0.00    +0.163 C 
BRANCH   8   9
ATOM      9  OG  SER A   1      -2.705 -29.085 -27.372  0.00  0.00    -0.380 OA
ATOM     10  H   SER A   1      -2.732 -30.064 -27.517  0.00  0.00    +0.211 HD
ENDBRANCH   8   9
ENDBRANCH   5   8
ENDBRANCH   1   5
BRANCH   2  11
ATOM     11  CA  HIS A   2      -2.652 -31.120 -22.691  0.00  0.00    +0.143 C 
BRANCH  11  12
ATOM     12  C   HIS A   2      -1.894 -32.069 -21.749  0.00  0.00    +0.227 C 
ATOM     13  O   HIS A   2      -2.487 -32.723 -20.888  0.00  0.00    -0.286 OA
ENDBRANCH  11  12
BRANCH  11  14
ATOM     14  CB  HIS A   2      -4.127 -31.050 -22.257  0.00  0.00    +0.075 C 
BRANCH  14  15
ATOM     15  CG  HIS A   2      -4.997 -30.203 -23.140  0.00  0.00    +0.082 A 
ATOM     16  ND1 HIS A   2      -4.946 -28.824 -23.140  0.00  0.00    -0.227 NA
ATOM     17  CE1 HIS A   2      -5.833 -28.351 -23.999  0.00  0.00    +0.199 A 
ATOM     18  NE2 HIS A   2      -6.472 -29.373 -24.543  0.00  0.00    -0.221 NA
ATOM     19  CD2 HIS A   2      -5.975 -30.542 -24.018  0.00  0.00    +0.115 A 
ENDBRANCH  14  15
ENDBRANCH  11  14
ENDBRANCH   2  11
TORSDOF 8
REMARK  Name = ../refined-set-2016/3vdb/3vdb_pocket.pdb
REMARK  184 active torsions:
REMARK  status: ('A' for Active; 'I' for Inactive)
REMARK    1  A    between atoms: _1  and  _3
REMARK    2  A    between atoms: _3  and  _4
REMARK    3  A    between atoms: _3  and  _6
REMARK    4  A    between atoms: _6  and  _7
REMARK    5  A    between atoms: _12  and  _13
REMARK    6  A    between atoms: _15  and  _17
REMARK    7  A    between atoms: _17  and  _18
REMARK    8  A    between atoms: _17  and  _20
REMARK    9  A    between atoms: _20  and  _21
REMARK   10  A    between atoms: _24  and  _26
REMARK   11  A    between atoms: _26  and  _27
REMARK   12  A    between atoms: _26  and  _29
REMARK   13  A    between atoms: _29  and  _30
REMARK   14  A    between atoms: _35  and  _37
REMARK   15  A    between atoms: _37  and  _38
REMARK   16  A    between atoms: _37  and  _40
REMARK   17  A    between atoms: _43  and  _45
REMARK   18  A    between atoms: _45  and  _46
REMARK   19  A    between atoms: _45  and  _48
REMARK   20  A    between atoms: _48  and  _49
REMARK   21  A    between atoms: _52  and  _54
REMARK   22  A    between atoms: _54  and  _55
REMARK   23  A    between atoms: _54  and  _57
REMARK   24  A    between atoms: _57  and  _58
REMARK   25  A    between atoms: _58  and  _59
REMARK   26  A    between atoms: _64  and  _66
REMARK   27  A    between atoms: _66  and  _67
REMARK   28  A    between atoms: _66  and  _69
REMARK   29  A    between atoms: _69  and  _70
REMARK   30  A    between atoms: _73  and  _75
REMARK   31  A    between atoms: _75  and  _76
REMARK   32  A    between atoms: _75  and  _78
REMARK   33  A    between atoms: _78  and  _79
REMARK   34  A    between atoms: _79  and  _80
REMARK   35  A    between atoms: _82  and  _84
REMARK   36  A    between atoms: _84  and  _85
REMARK   37  A    between atoms: _84  and  _87
REMARK   38  A    between atoms: _87  and  _88
REMARK   39  A    between atoms: _88  and  _89
REMARK   40  A    between atoms: _89  and  _90
REMARK   41  A    between atoms: _99  and  _101
REMARK   42  A    between atoms: _101  and  _102
REMARK   43  A    between atoms: _101  and  _104
REMARK   44  A    between atoms: _104  and  _105
REMARK   45  A    between atoms: _110  and  _112
REMARK   46  A    between atoms: _112  and  _113
REMARK   47  A    between atoms: _112  and  _115
REMARK   48  A    between atoms: _115  and  _116
REMARK   49  A    between atoms: _121  and  _123
REMARK   50  A    between atoms: _123  and  _124
REMARK   51  A    between atoms: _123  and  _126
REMARK   52  A    between atoms: _126  and  _127
REMARK   53  A    between atoms: _127  and  _128
REMARK   54  A    between atoms: _128  and  _129
REMARK   55  A    between atoms: _138  and  _140
REMARK   56  A    between atoms: _140  and  _141
REMARK   57  A    between atoms: _140  and  _143
REMARK   58  A    between atoms: _143  and  _144
REMARK   59  A    between atoms: _146  and  _148
REMARK   60  A    between atoms: _148  and  _149
REMARK   61  A    between atoms: _148  and  _151
REMARK   62  A    between atoms: _151  and  _152
REMARK   63  A    between atoms: _157  and  _159
REMARK   64  A    between atoms: _159  and  _160
REMARK   65  A    between atoms: _159  and  _162
REMARK   66  A    between atoms: _162  and  _163
REMARK   67  A    between atoms: _163  and  _164
REMARK   68  A    between atoms: _167  and  _169
REMARK   69  A    between atoms: _169  and  _170
REMARK   70  A    between atoms: _169  and  _172
REMARK   71  A    between atoms: _172  and  _173
REMARK   72  A    between atoms: _173  and  _174
REMARK   73  A    between atoms: _174  and  _176
REMARK   74  A    between atoms: _176  and  MG_430
REMARK   75  A    between atoms: _177  and  _179
REMARK   76  A    between atoms: _179  and  _180
REMARK   77  A    between atoms: _179  and  _182
REMARK   78  A    between atoms: _182  and  _183
REMARK   79  A    between atoms: _188  and  _190
REMARK   80  A    between atoms: _190  and  _191
REMARK   81  A    between atoms: _193  and  _195
REMARK   82  A    between atoms: _195  and  _196
REMARK   83  A    between atoms: _195  and  _198
REMARK   84  A    between atoms: _198  and  _199
REMARK   85  A    between atoms: _202  and  _204
REMARK   86  A    between atoms: _204  and  _205
REMARK   87  A    between atoms: _204  and  _207
REMARK   88  A    between atoms: _207  and  _208
REMARK   89  A    between atoms: _208  and  _209
REMARK   90  A    between atoms: _209  and  _210
REMARK   91  A    between atoms: _210  and  MG_430
REMARK   92  A    between atoms: _212  and  _214
REMARK   93  A    between atoms: _214  and  _215
REMARK   94  A    between atoms: _214  and  _217
REMARK   95  A    between atoms: _217  and  _218
REMARK   96  A    between atoms: _218  and  _219
REMARK   97  A    between atoms: _222  and  _224
REMARK   98  A    between atoms: _224  and  _225
REMARK   99  A    between atoms: _224  and  _227
REMARK  100  A    between atoms: _227  and  _228
REMARK  101  A    between atoms: _228  and  _229
REMARK  102  A    between atoms: _231  and  _233
REMARK  103  A    between atoms: _233  and  _234
REMARK  104  A    between atoms: _233  and  _236
REMARK  105  A    between atoms: _236  and  _237
REMARK  106  A    between atoms: _242  and  _243
REMARK  107  A    between atoms: _245  and  _247
REMARK  108  A    between atoms: _247  and  _248
REMARK  109  A    between atoms: _247  and  _250
REMARK  110  A    between atoms: _250  and  _251
REMARK  111  A    between atoms: _251  and  _252
REMARK  112  A    between atoms: _252  and  _253
REMARK  113  A    between atoms: _253  and  _254
REMARK  114  A    between atoms: _258  and  _260
REMARK  115  A    between atoms: _260  and  _261
REMARK  116  A    between atoms: _260  and  _263
REMARK  117  A    between atoms: _265  and  _267
REMARK  118  A    between atoms: _267  and  _268
REMARK  119  A    between atoms: _267  and  _270
REMARK  120  A    between atoms: _270  and  _271
REMARK  121  A    between atoms: _271  and  _272
REMARK  122  A    between atoms: _275  and  _277
REMARK  123  A    between atoms: _277  and  _278
REMARK  124  A    between atoms: _277  and  _280
REMARK  125  A    between atoms: _280  and  _281
REMARK  126  A    between atoms: _286  and  _288
REMARK  127  A    between atoms: _288  and  _289
REMARK  128  A    between atoms: _292  and  _294
REMARK  129  A    between atoms: _294  and  _295
REMARK  130  A    between atoms: _294  and  _297
REMARK  131  A    between atoms: _297  and  _298
REMARK  132  A    between atoms: _298  and  _299
REMARK  133  A    between atoms: _301  and  _303
REMARK  134  A    between atoms: _303  and  _304
REMARK  135  A    between atoms: _303  and  _306
REMARK  136  A    between atoms: _306  and  _307
REMARK  137  A    between atoms: _317  and  _319
REMARK  138  A    between atoms: _319  and  _320
REMARK  139  A    between atoms: _319  and  _322
REMARK  140  A    between atoms: _322  and  _323
REMARK  141  A    between atoms: _326  and  _328
REMARK  142  A    between atoms: _328  and  _329
REMARK  143  A    between atoms: _328  and  _331
REMARK  144  A    between atoms: _331  and  _332
REMARK  145  A    between atoms: _332  and  _333
REMARK  146  A    between atoms: _338  and  _340
REMARK  147  A    between atoms: _340  and  _341
REMARK  148  A    between atoms: _340  and  _343
REMARK  149  A    between atoms: _343  and  _344
REMARK  150  A    between atoms: _344  and  _345
REMARK  151  A    between atoms: _350  and  _352
REMARK  152  A    between atoms: _352  and  _353
REMARK  153  A    between atoms: _352  and  _355
REMARK  154  A    between atoms: _355  and  _356
REMARK  155  A    between atoms: _362  and  _364
REMARK  156  A    between atoms: _364  and  _365
REMARK  157  A    between atoms: _364  and  _367
REMARK  158  A    between atoms: _369  and  _371
REMARK  159  A    between atoms: _371  and  _372
REMARK  160  A    between atoms: _371  and  _374
REMARK  161  A    between atoms: _374  and  _375
REMARK  162  A    between atoms: _375  and  _376
REMARK  163  A    between atoms: _378  and  _380
REMARK  164  A    between atoms: _380  and  _381
REMARK  165  A    between atoms: _380  and  _383
REMARK  166  A    between atoms: _383  and  _384
REMARK  167  A    between atoms: _384  and  _385
REMARK  168  A    between atoms: _384  and  _386
REMARK  169  A    between atoms: _389  and  _391
REMARK  170  A    between atoms: _391  and  _392
REMARK  171  A    between atoms: _391  and  _394
REMARK  172  A    between atoms: _394  and  _395
REMARK  173  A    between atoms: _397  and  _399
REMARK  174  A    between atoms: _399  and  _400
REMARK  175  A    between atoms: _399  and  _402
REMARK  176  A    between atoms: _402  and  _403
REMARK  177  A    between atoms: _406  and  _408
REMARK  178  A    between atoms: _408  and  _409
REMARK  179  A    between atoms: _408  and  _411
REMARK  180  A    between atoms: _411  and  _412
REMARK  181  A    between atoms: _414  and  _416
REMARK  182  A    between atoms: _416  and  _417
REMARK  183  A    between atoms: _416  and  _419
REMARK  184  A    between atoms: _419  and  _420
REMARK                            x       y       z     vdW  Elec       q    Type
REMARK                         _______ _______ _______ _____ _____    ______ ____
ROOT
ATOM      1  CA  GLU A   1       1.212 -28.466 -19.174  0.00  0.00    +0.134 C 
ENDROOT
BRANCH   1   2
ATOM      2  N   GLU A   1       2.511 -28.278 -19.811  0.00  0.00    -0.239 NA
ATOM      3  H   GLU A   1       2.842 -28.976 -20.507  0.00  0.00    +0.142 HD
ENDBRANCH   1   2
BRANCH   1   4
ATOM      4  C   GLU A   1       1.084 -29.846 -18.547  0.00  0.00    +0.224 C 
ATOM      5  O   GLU A   1       1.380 -30.843 -19.194  0.00  0.00    -0.287 OA
ENDBRANCH   1   4
BRANCH   1   6
ATOM      6  CB  GLU A   1       0.117 -28.252 -20.222  0.00  0.00    +0.037 C 
BRANCH   6   7
ATOM      7  CG  GLU A   1      -1.295 -28.341 -19.701  0.00  0.00    +0.116 C 
BRANCH   7   8
ATOM      8  CD  GLU A   1      -2.269 -27.628 -20.615  0.00  0.00    +0.365 C 
ATOM      9  OE2 GLU A   1      -2.339 -26.383 -20.566  0.00  0.00    -0.246 OA
ATOM     10  OE1 GLU A   1      -2.949 -28.310 -21.402  0.00  0.00    -0.246 OA
ENDBRANCH   7   8
ENDBRANCH   6   7
ENDBRANCH   1   6
TORSDOF 5
REMARK  Name = ../refined-set-2016/3vdb/3vdb_pocket.pdb
REMARK  184 active torsions:
REMARK  status: ('A' for Active; 'I' for Inactive)
REMARK    1  A    between atoms: _1  and  _3
REMARK    2  A    between atoms: _3  and  _4
REMARK    3  A    between atoms: _3  and  _6
REMARK    4  A    between atoms: _6  and  _7
REMARK    5  A    between atoms: _12  and  _13
REMARK    6  A    between atoms: _15  and  _17
REMARK    7  A    between atoms: _17  and  _18
REMARK    8  A    between atoms: _17  and  _20
REMARK    9  A    between atoms: _20  and  _21
REMARK   10  A    between atoms: _24  and  _26
REMARK   11  A    between atoms: _26  and  _27
REMARK   12  A    between atoms: _26  and  _29
REMARK   13  A    between atoms: _29  and  _30
REMARK   14  A    between atoms: _35  and  _37
REMARK   15  A    between atoms: _37  and  _38
REMARK   16  A    between atoms: _37  and  _40
REMARK   17  A    between atoms: _43  and  _45
REMARK   18  A    between atoms: _45  and  _46
REMARK   19  A    between atoms: _45  and  _48
REMARK   20  A    between atoms: _48  and  _49
REMARK   21  A    between atoms: _52  and  _54
REMARK   22  A    between atoms: _54  and  _55
REMARK   23  A    between atoms: _54  and  _57
REMARK   24  A    between atoms: _57  and  _58
REMARK   25  A    between atoms: _58  and  _59
REMARK   26  A    between atoms: _64  and  _66
REMARK   27  A    between atoms: _66  and  _67
REMARK   28  A    between atoms: _66  and  _69
REMARK   29  A    between atoms: _69  and  _70
REMARK   30  A    between atoms: _73  and  _75
REMARK   31  A    between atoms: _75  and  _76
REMARK   32  A    between atoms: _75  and  _78
REMARK   33  A    between atoms: _78  and  _79
REMARK   34  A    between atoms: _79  and  _80
REMARK   35  A    between atoms: _82  and  _84
REMARK   36  A    between atoms: _84  and  _85
REMARK   37  A    between atoms: _84  and  _87
REMARK   38  A    between atoms: _87  and  _88
REMARK   39  A    between atoms: _88  and  _89
REMARK   40  A    between atoms: _89  and  _90
REMARK   41  A    between atoms: _99  and  _101
REMARK   42  A    between atoms: _101  and  _102
REMARK   43  A    between atoms: _101  and  _104
REMARK   44  A    between atoms: _104  and  _105
REMARK   45  A    between atoms: _110  and  _112
REMARK   46  A    between atoms: _112  and  _113
REMARK   47  A    between atoms: _112  and  _115
REMARK   48  A    between atoms: _115  and  _116
REMARK   49  A    between atoms: _121  and  _123
REMARK   50  A    between atoms: _123  and  _124
REMARK   51  A    between atoms: _123  and  _126
REMARK   52  A    between atoms: _126  and  _127
REMARK   53  A    between atoms: _127  and  _128
REMARK   54  A    between atoms: _128  and  _129
REMARK   55  A    between atoms: _138  and  _140
REMARK   56  A    between atoms: _140  and  _141
REMARK   57  A    between atoms: _140  and  _143
REMARK   58  A    between atoms: _143  and  _144
REMARK   59  A    between atoms: _146  and  _148
REMARK   60  A    between atoms: _148  and  _149
REMARK   61  A    between atoms: _148  and  _151
REMARK   62  A    between atoms: _151  and  _152
REMARK   63  A    between atoms: _157  and  _159
REMARK   64  A    between atoms: _159  and  _160
REMARK   65  A    between atoms: _159  and  _162
REMARK   66  A    between atoms: _162  and  _163
REMARK   67  A    between atoms: _163  and  _164
REMARK   68  A    between atoms: _167  and  _169
REMARK   69  A    between atoms: _169  and  _170
REMARK   70  A    between atoms: _169  and  _172
REMARK   71  A    between atoms: _172  and  _173
REMARK   72  A    between atoms: _173  and  _174
REMARK   73  A    between atoms: _174  and  _176
REMARK   74  A    between atoms: _176  and  MG_430
REMARK   75  A    between atoms: _177  and  _179
REMARK   76  A    between atoms: _179  and  _180
REMARK   77  A    between atoms: _179  and  _182
REMARK   78  A    between atoms: _182  and  _183
REMARK   79  A    between atoms: _188  and  _190
REMARK   80  A    between atoms: _190  and  _191
REMARK   81  A    between atoms: _193  and  _195
REMARK   82  A    between atoms: _195  and  _196
REMARK   83  A    between atoms: _195  and  _198
REMARK   84  A    between atoms: _198  and  _199
REMARK   85  A    between atoms: _202  and  _204
REMARK   86  A    between atoms: _204  and  _205
REMARK   87  A    between atoms: _204  and  _207
REMARK   88  A    between atoms: _207  and  _208
REMARK   89  A    between atoms: _208  and  _209
REMARK   90  A    between atoms: _209  and  _210
REMARK   91  A    between atoms: _210  and  MG_430
REMARK   92  A    between atoms: _212  and  _214
REMARK   93  A    between atoms: _214  and  _215
REMARK   94  A    between atoms: _214  and  _217
REMARK   95  A    between atoms: _217  and  _218
REMARK   96  A    between atoms: _218  and  _219
REMARK   97  A    between atoms: _222  and  _224
REMARK   98  A    between atoms: _224  and  _225
REMARK   99  A    between atoms: _224  and  _227
REMARK  100  A    between atoms: _227  and  _228
REMARK  101  A    between atoms: _228  and  _229
REMARK  102  A    between atoms: _231  and  _233
REMARK  103  A    between atoms: _233  and  _234
REMARK  104  A    between atoms: _233  and  _236
REMARK  105  A    between atoms: _236  and  _237
REMARK  106  A    between atoms: _242  and  _243
REMARK  107  A    between atoms: _245  and  _247
REMARK  108  A    between atoms: _247  and  _248
REMARK  109  A    between atoms: _247  and  _250
REMARK  110  A    between atoms: _250  and  _251
REMARK  111  A    between atoms: _251  and  _252
REMARK  112  A    between atoms: _252  and  _253
REMARK  113  A    between atoms: _253  and  _254
REMARK  114  A    between atoms: _258  and  _260
REMARK  115  A    between atoms: _260  and  _261
REMARK  116  A    between atoms: _260  and  _263
REMARK  117  A    between atoms: _265  and  _267
REMARK  118  A    between atoms: _267  and  _268
REMARK  119  A    between atoms: _267  and  _270
REMARK  120  A    between atoms: _270  and  _271
REMARK  121  A    between atoms: _271  and  _272
REMARK  122  A    between atoms: _275  and  _277
REMARK  123  A    between atoms: _277  and  _278
REMARK  124  A    between atoms: _277  and  _280
REMARK  125  A    between atoms: _280  and  _281
REMARK  126  A    between atoms: _286  and  _288
REMARK  127  A    between atoms: _288  and  _289
REMARK  128  A    between atoms: _292  and  _294
REMARK  129  A    between atoms: _294  and  _295
REMARK  130  A    between atoms: _294  and  _297
REMARK  131  A    between atoms: _297  and  _298
REMARK  132  A    between atoms: _298  and  _299
REMARK  133  A    between atoms: _301  and  _303
REMARK  134  A    between atoms: _303  and  _304
REMARK  135  A    between atoms: _303  and  _306
REMARK  136  A    between atoms: _306  and  _307
REMARK  137  A    between atoms: _317  and  _319
REMARK  138  A    between atoms: _319  and  _320
REMARK  139  A    between atoms: _319  and  _322
REMARK  140  A    between atoms: _322  and  _323
REMARK  141  A    between atoms: _326  and  _328
REMARK  142  A    between atoms: _328  and  _329
REMARK  143  A    between atoms: _328  and  _331
REMARK  144  A    between atoms: _331  and  _332
REMARK  145  A    between atoms: _332  and  _333
REMARK  146  A    between atoms: _338  and  _340
REMARK  147  A    between atoms: _340  and  _341
REMARK  148  A    between atoms: _340  and  _343
REMARK  149  A    between atoms: _343  and  _344
REMARK  150  A    between atoms: _344  and  _345
REMARK  151  A    between atoms: _350  and  _352
REMARK  152  A    between atoms: _352  and  _353
REMARK  153  A    between atoms: _352  and  _355
REMARK  154  A    between atoms: _355  and  _356
REMARK  155  A    between atoms: _362  and  _364
REMARK  156  A    between atoms: _364  and  _365
REMARK  157  A    between atoms: _364  and  _367
REMARK  158  A    between atoms: _369  and  _371
REMARK  159  A    between atoms: _371  and  _372
REMARK  160  A    between atoms: _371  and  _374
REMARK  161  A    between atoms: _374  and  _375
REMARK  162  A    between atoms: _375  and  _376
REMARK  163  A    between atoms: _378  and  _380
REMARK  164  A    between atoms: _380  and  _381
REMARK  165  A    between atoms: _380  and  _383
REMARK  166  A    between atoms: _383  and  _384
REMARK  167  A    between atoms: _384  and  _385
REMARK  168  A    between atoms: _384  and  _386
REMARK  169  A    between atoms: _389  and  _391
REMARK  170  A    between atoms: _391  and  _392
REMARK  171  A    between atoms: _391  and  _394
REMARK  172  A    between atoms: _394  and  _395
REMARK  173  A    between atoms: _397  and  _399
REMARK  174  A    between atoms: _399  and  _400
REMARK  175  A    between atoms: _399  and  _402
REMARK  176  A    between atoms: _402  and  _403
REMARK  177  A    between atoms: _406  and  _408
REMARK  178  A    between atoms: _408  and  _409
REMARK  179  A    between atoms: _408  and  _411
REMARK  180  A    between atoms: _411  and  _412
REMARK  181  A    between atoms: _414  and  _416
REMARK  182  A    between atoms: _416  and  _417
REMARK  183  A    between atoms: _416  and  _419
REMARK  184  A    between atoms: _419  and  _420
REMARK                            x       y       z     vdW  Elec       q    Type
REMARK                         _______ _______ _______ _____ _____    ______ ____
ROOT
ATOM      1  C   UNK A   3     -10.809 -28.257 -18.201  0.00  0.00    +0.000 C 
ENDROOT
BRANCH   1   2
ATOM      2  N   UNK A   3      -9.437 -27.798 -18.385  0.00  0.00    +0.000 N 
ATOM      3  C   THR A   2      -8.390 -28.604 -18.230  0.00  0.00    +0.000 C 
ATOM      4  O   THR A   2      -8.479 -29.730 -17.775  0.00  0.00    +0.000 OA
ATOM      5  H   UNK A   3      -9.271 -26.805 -18.647  0.00  0.00    +0.000 HD
BRANCH   3   6
ATOM      6  CA  THR A   2      -7.031 -28.033 -18.632  0.00  0.00    +0.000 C 
BRANCH   6   7
ATOM      7  N   THR A   2      -5.946 -28.657 -17.899  0.00  0.00    +0.000 N 
ATOM      8  H   THR A   2      -6.054 -29.638 -17.572  0.00  0.00    +0.000 HD
ATOM      9  C   UNK A   1      -4.818 -28.008 -17.635  0.00  0.00    +0.000 C 
ATOM     10  O   UNK A   1      -4.646 -26.815 -17.898  0.00  0.00    +0.000 OA
BRANCH   9  11
ATOM     11  C   UNK A   1      -3.729 -28.817 -16.976  0.00  0.00    +0.000 C 
BRANCH  11  12
ATOM     12  N   UNK A   1      -2.829 -27.938 -16.252  0.00  0.00    +0.000 NA
ATOM     13  H   UNK A   1      -2.276 -27.231 -16.778  0.00  0.00    +0.000 HD
ENDBRANCH  11  12
ENDBRANCH   9  11
ENDBRANCH   6   7
BRANCH   6  14
ATOM     14  CB  THR A   2      -6.803 -28.151 -20.161  0.00  0.00    +0.000 C 
ATOM     15  CG2 THR A   2      -7.228 -29.494 -20.680  0.00  0.00    +0.000 C 
BRANCH  14  16
ATOM     16  OG1 THR A   2      -7.531 -27.126 -20.845  0.00  0.00    +0.000 OA
ATOM     17  HG1 THR A   2      -8.497 -27.223 -20.651  0.00  0.00    +0.000 HD
ENDBRANCH  14  16
ENDBRANCH   6  14
ENDBRANCH   3   6
ENDBRANCH   1   2
BRANCH   1  18
ATOM     18  C   UNK A   3     -10.988 -29.179 -16.995  0.00  0.00    +0.000 C 
ATOM     19  O   UNK A   3     -11.463 -30.296 -17.126  0.00  0.00    +0.000 OA
ENDBRANCH   1  18
BRANCH   1  20
ATOM     20  C   UNK A   3     -11.312 -28.957 -19.466  0.00  0.00    +0.000 C 
BRANCH  20  21
ATOM     21  C   UNK A   3     -11.639 -28.033 -20.600  0.00  0.00    +0.000 C 
BRANCH  21  22
ATOM     22  C   UNK A   3     -10.898 -28.406 -21.853  0.00  0.00    +0.000 C 
ATOM     23  O   UNK A   3      -9.839 -27.801 -22.059  0.00  0.00    +0.000 OA
BRANCH  22  24
ATOM     24  O   UNK A   3     -11.333 -29.308 -22.599  0.00  0.00    +0.000 OA
BRANCH  24  25
ATOM     25 MG   UNK A   1     -11.849 -31.234 -23.008  0.00  0.00    +0.000 Mg
BRANCH  25  26
ATOM     26  O   UNK A   1     -10.629 -31.756 -21.423  0.00  0.00    +0.000 OA
BRANCH  26  27
ATOM     27  C   UNK A   1      -9.510 -32.116 -21.017  0.00  0.00    +0.000 C 
ATOM     28  O   UNK A   1      -8.487 -32.044 -21.731  0.00  0.00    +0.000 OA
BRANCH  27  29
ATOM     29  C   UNK A   1      -9.436 -32.649 -19.587  0.00  0.00    +0.000 C 
BRANCH  29  30
ATOM     30  C   UNK A   1      -8.025 -32.913 -19.055  0.00  0.00    +0.000 C 
BRANCH  30  31
ATOM     31  C   UNK A   1      -8.011 -33.023 -17.523  0.00  0.00    +0.000 C 
BRANCH  31  32
ATOM     32  C   UNK A   1      -9.157 -33.908 -17.043  0.00  0.00    +0.000 C 
ATOM     33  O   UNK A   1      -9.132 -35.125 -17.231  0.00  0.00    +0.000 OA
ENDBRANCH  31  32
BRANCH  31  34
ATOM     34  N   UNK A   1      -6.745 -33.525 -17.018  0.00  0.00    +0.000 NA
ATOM     35  H   UNK A   1      -6.598 -34.553 -16.968  0.00  0.00    +0.000 HD
ENDBRANCH  31  34
ENDBRANCH  30  31
ENDBRANCH  29  30
ENDBRANCH  27  29
ENDBRANCH  26  27
ENDBRANCH  25  26
ENDBRANCH  24  25
ENDBRANCH  22  24
ENDBRANCH  21  22
ENDBRANCH  20  21
ENDBRANCH   1  20
TORSDOF 20
REMARK  Name = ../refined-set-2016/3vdb/3vdb_pocket.pdb
REMARK  184 active torsions:
REMARK  status: ('A' for Active; 'I' for Inactive)
REMARK    1  A    between atoms: _1  and  _3
REMARK    2  A    between atoms: _3  and  _4
REMARK    3  A    between atoms: _3  and  _6
REMARK    4  A    between atoms: _6  and  _7
REMARK    5  A    between atoms: _12  and  _13
REMARK    6  A    between atoms: _15  and  _17
REMARK    7  A    between atoms: _17  and  _18
REMARK    8  A    between atoms: _17  and  _20
REMARK    9  A    between atoms: _20  and  _21
REMARK   10  A    between atoms: _24  and  _26
REMARK   11  A    between atoms: _26  and  _27
REMARK   12  A    between atoms: _26  and  _29
REMARK   13  A    between atoms: _29  and  _30
REMARK   14  A    between atoms: _35  and  _37
REMARK   15  A    between atoms: _37  and  _38
REMARK   16  A    between atoms: _37  and  _40
REMARK   17  A    between atoms: _43  and  _45
REMARK   18  A    between atoms: _45  and  _46
REMARK   19  A    between atoms: _45  and  _48
REMARK   20  A    between atoms: _48  and  _49
REMARK   21  A    between atoms: _52  and  _54
REMARK   22  A    between atoms: _54  and  _55
REMARK   23  A    between atoms: _54  and  _57
REMARK   24  A    between atoms: _57  and  _58
REMARK   25  A    between atoms: _58  and  _59
REMARK   26  A    between atoms: _64  and  _66
REMARK   27  A    between atoms: _66  and  _67
REMARK   28  A    between atoms: _66  and  _69
REMARK   29  A    between atoms: _69  and  _70
REMARK   30  A    between atoms: _73  and  _75
REMARK   31  A    between atoms: _75  and  _76
REMARK   32  A    between atoms: _75  and  _78
REMARK   33  A    between atoms: _78  and  _79
REMARK   34  A    between atoms: _79  and  _80
REMARK   35  A    between atoms: _82  and  _84
REMARK   36  A    between atoms: _84  and  _85
REMARK   37  A    between atoms: _84  and  _87
REMARK   38  A    between atoms: _87  and  _88
REMARK   39  A    between atoms: _88  and  _89
REMARK   40  A    between atoms: _89  and  _90
REMARK   41  A    between atoms: _99  and  _101
REMARK   42  A    between atoms: _101  and  _102
REMARK   43  A    between atoms: _101  and  _104
REMARK   44  A    between atoms: _104  and  _105
REMARK   45  A    between atoms: _110  and  _112
REMARK   46  A    between atoms: _112  and  _113
REMARK   47  A    between atoms: _112  and  _115
REMARK   48  A    between atoms: _115  and  _116
REMARK   49  A    between atoms: _121  and  _123
REMARK   50  A    between atoms: _123  and  _124
REMARK   51  A    between atoms: _123  and  _126
REMARK   52  A    between atoms: _126  and  _127
REMARK   53  A    between atoms: _127  and  _128
REMARK   54  A    between atoms: _128  and  _129
REMARK   55  A    between atoms: _138  and  _140
REMARK   56  A    between atoms: _140  and  _141
REMARK   57  A    between atoms: _140  and  _143
REMARK   58  A    between atoms: _143  and  _144
REMARK   59  A    between atoms: _146  and  _148
REMARK   60  A    between atoms: _148  and  _149
REMARK   61  A    between atoms: _148  and  _151
REMARK   62  A    between atoms: _151  and  _152
REMARK   63  A    between atoms: _157  and  _159
REMARK   64  A    between atoms: _159  and  _160
REMARK   65  A    between atoms: _159  and  _162
REMARK   66  A    between atoms: _162  and  _163
REMARK   67  A    between atoms: _163  and  _164
REMARK   68  A    between atoms: _167  and  _169
REMARK   69  A    between atoms: _169  and  _170
REMARK   70  A    between atoms: _169  and  _172
REMARK   71  A    between atoms: _172  and  _173
REMARK   72  A    between atoms: _173  and  _174
REMARK   73  A    between atoms: _174  and  _176
REMARK   74  A    between atoms: _176  and  MG_430
REMARK   75  A    between atoms: _177  and  _179
REMARK   76  A    between atoms: _179  and  _180
REMARK   77  A    between atoms: _179  and  _182
REMARK   78  A    between atoms: _182  and  _183
REMARK   79  A    between atoms: _188  and  _190
REMARK   80  A    between atoms: _190  and  _191
REMARK   81  A    between atoms: _193  and  _195
REMARK   82  A    between atoms: _195  and  _196
REMARK   83  A    between atoms: _195  and  _198
REMARK   84  A    between atoms: _198  and  _199
REMARK   85  A    between atoms: _202  and  _204
REMARK   86  A    between atoms: _204  and  _205
REMARK   87  A    between atoms: _204  and  _207
REMARK   88  A    between atoms: _207  and  _208
REMARK   89  A    between atoms: _208  and  _209
REMARK   90  A    between atoms: _209  and  _210
REMARK   91  A    between atoms: _210  and  MG_430
REMARK   92  A    between atoms: _212  and  _214
REMARK   93  A    between atoms: _214  and  _215
REMARK   94  A    between atoms: _214  and  _217
REMARK   95  A    between atoms: _217  and  _218
REMARK   96  A    between atoms: _218  and  _219
REMARK   97  A    between atoms: _222  and  _224
REMARK   98  A    between atoms: _224  and  _225
REMARK   99  A    between atoms: _224  and  _227
REMARK  100  A    between atoms: _227  and  _228
REMARK  101  A    between atoms: _228  and  _229
REMARK  102  A    between atoms: _231  and  _233
REMARK  103  A    between atoms: _233  and  _234
REMARK  104  A    between atoms: _233  and  _236
REMARK  105  A    between atoms: _236  and  _237
REMARK  106  A    between atoms: _242  and  _243
REMARK  107  A    between atoms: _245  and  _247
REMARK  108  A    between atoms: _247  and  _248
REMARK  109  A    between atoms: _247  and  _250
REMARK  110  A    between atoms: _250  and  _251
REMARK  111  A    between atoms: _251  and  _252
REMARK  112  A    between atoms: _252  and  _253
REMARK  113  A    between atoms: _253  and  _254
REMARK  114  A    between atoms: _258  and  _260
REMARK  115  A    between atoms: _260  and  _261
REMARK  116  A    between atoms: _260  and  _263
REMARK  117  A    between atoms: _265  and  _267
REMARK  118  A    between atoms: _267  and  _268
REMARK  119  A    between atoms: _267  and  _270
REMARK  120  A    between atoms: _270  and  _271
REMARK  121  A    between atoms: _271  and  _272
REMARK  122  A    between atoms: _275  and  _277
REMARK  123  A    between atoms: _277  and  _278
REMARK  124  A    between atoms: _277  and  _280
REMARK  125  A    between atoms: _280  and  _281
REMARK  126  A    between atoms: _286  and  _288
REMARK  127  A    between atoms: _288  and  _289
REMARK  128  A    between atoms: _292  and  _294
REMARK  129  A    between atoms: _294  and  _295
REMARK  130  A    between atoms: _294  and  _297
REMARK  131  A    between atoms: _297  and  _298
REMARK  132  A    between atoms: _298  and  _299
REMARK  133  A    between atoms: _301  and  _303
REMARK  134  A    between atoms: _303  and  _304
REMARK  135  A    between atoms: _303  and  _306
REMARK  136  A    between atoms: _306  and  _307
REMARK  137  A    between atoms: _317  and  _319
REMARK  138  A    between atoms: _319  and  _320
REMARK  139  A    between atoms: _319  and  _322
REMARK  140  A    between atoms: _322  and  _323
REMARK  141  A    between atoms: _326  and  _328
REMARK  142  A    between atoms: _328  and  _329
REMARK  143  A    between atoms: _328  and  _331
REMARK  144  A    between atoms: _331  and  _332
REMARK  145  A    between atoms: _332  and  _333
REMARK  146  A    between atoms: _338  and  _340
REMARK  147  A    between atoms: _340  and  _341
REMARK  148  A    between atoms: _340  and  _343
REMARK  149  A    between atoms: _343  and  _344
REMARK  150  A    between atoms: _344  and  _345
REMARK  151  A    between atoms: _350  and  _352
REMARK  152  A    between atoms: _352  and  _353
REMARK  153  A    between atoms: _352  and  _355
REMARK  154  A    between atoms: _355  and  _356
REMARK  155  A    between atoms: _362  and  _364
REMARK  156  A    between atoms: _364  and  _365
REMARK  157  A    between atoms: _364  and  _367
REMARK  158  A    between atoms: _369  and  _371
REMARK  159  A    between atoms: _371  and  _372
REMARK  160  A    between atoms: _371  and  _374
REMARK  161  A    between atoms: _374  and  _375
REMARK  162  A    between atoms: _375  and  _376
REMARK  163  A    between atoms: _378  and  _380
REMARK  164  A    between atoms: _380  and  _381
REMARK  165  A    between atoms: _380  and  _383
REMARK  166  A    between atoms: _383  and  _384
REMARK  167  A    between atoms: _384  and  _385
REMARK  168  A    between atoms: _384  and  _386
REMARK  169  A    between atoms: _389  and  _391
REMARK  170  A    between atoms: _391  and  _392
REMARK  171  A    between atoms: _391  and  _394
REMARK  172  A    between atoms: _394  and  _395
REMARK  173  A    between atoms: _397  and  _399
REMARK  174  A    between atoms: _399  and  _400
REMARK  175  A    between atoms: _399  and  _402
REMARK  176  A    between atoms: _402  and  _403
REMARK  177  A    between atoms: _406  and  _408
REMARK  178  A    between atoms: _408  and  _409
REMARK  179  A    between atoms: _408  and  _411
REMARK  180  A    between atoms: _411  and  _412
REMARK  181  A    between atoms: _414  and  _416
REMARK  182  A    between atoms: _416  and  _417
REMARK  183  A    between atoms: _416  and  _419
REMARK  184  A    between atoms: _419  and  _420
REMARK                            x       y       z     vdW  Elec       q    Type
REMARK                         _______ _______ _______ _____ _____    ______ ____
ROOT
ATOM      1  CB  HIS A   1     -13.464 -32.258 -19.899  0.00  0.00    +0.072 C 
ENDROOT
BRANCH   1   2
ATOM      2  CG  HIS A   1     -14.182 -31.122 -20.564  0.00  0.00    +0.082 A 
ATOM      3  CD2 HIS A   1     -15.312 -30.457 -20.223  0.00  0.00    +0.115 A 
ATOM      4  NE2 HIS A   1     -15.522 -29.496 -21.183  0.00  0.00    -0.221 NA
ATOM      5  CE1 HIS A   1     -14.551 -29.561 -22.076  0.00  0.00    +0.199 A 
ATOM      6  ND1 HIS A   1     -13.726 -30.532 -21.725  0.00  0.00    -0.227 NA
ENDBRANCH   1   2
BRANCH   1   7
ATOM      7  CA  HIS A   1     -13.704 -32.352 -18.390  0.00  0.00    +0.139 C 
BRANCH   7   8
ATOM      8  N   HIS A   1     -12.598 -33.052 -17.738  0.00  0.00    -0.239 NA
ATOM      9  H   HIS A   1     -11.764 -33.301 -18.307  0.00  0.00    +0.142 HD
ENDBRANCH   7   8
BRANCH   7  10
ATOM     10  C   HIS A   1     -15.054 -33.014 -18.130  0.00  0.00    +0.224 C 
ATOM     11  O   HIS A   1     -16.037 -32.332 -17.828  0.00  0.00    -0.287 OA
ENDBRANCH   7  10
ENDBRANCH   1   7
TORSDOF 4
REMARK  Name = ../refined-set-2016/3vdb/3vdb_pocket.pdb
REMARK  184 active torsions:
REMARK  status: ('A' for Active; 'I' for Inactive)
REMARK    1  A    between atoms: _1  and  _3
REMARK    2  A    between atoms: _3  and  _4
REMARK    3  A    between atoms: _3  and  _6
REMARK    4  A    between atoms: _6  and  _7
REMARK    5  A    between atoms: _12  and  _13
REMARK    6  A    between atoms: _15  and  _17
REMARK    7  A    between atoms: _17  and  _18
REMARK    8  A    between atoms: _17  and  _20
REMARK    9  A    between atoms: _20  and  _21
REMARK   10  A    between atoms: _24  and  _26
REMARK   11  A    between atoms: _26  and  _27
REMARK   12  A    between atoms: _26  and  _29
REMARK   13  A    between atoms: _29  and  _30
REMARK   14  A    between atoms: _35  and  _37
REMARK   15  A    between atoms: _37  and  _38
REMARK   16  A    between atoms: _37  and  _40
REMARK   17  A    between atoms: _43  and  _45
REMARK   18  A    between atoms: _45  and  _46
REMARK   19  A    between atoms: _45  and  _48
REMARK   20  A    between atoms: _48  and  _49
REMARK   21  A    between atoms: _52  and  _54
REMARK   22  A    between atoms: _54  and  _55
REMARK   23  A    between atoms: _54  and  _57
REMARK   24  A    between atoms: _57  and  _58
REMARK   25  A    between atoms: _58  and  _59
REMARK   26  A    between atoms: _64  and  _66
REMARK   27  A    between atoms: _66  and  _67
REMARK   28  A    between atoms: _66  and  _69
REMARK   29  A    between atoms: _69  and  _70
REMARK   30  A    between atoms: _73  and  _75
REMARK   31  A    between atoms: _75  and  _76
REMARK   32  A    between atoms: _75  and  _78
REMARK   33  A    between atoms: _78  and  _79
REMARK   34  A    between atoms: _79  and  _80
REMARK   35  A    between atoms: _82  and  _84
REMARK   36  A    between atoms: _84  and  _85
REMARK   37  A    between atoms: _84  and  _87
REMARK   38  A    between atoms: _87  and  _88
REMARK   39  A    between atoms: _88  and  _89
REMARK   40  A    between atoms: _89  and  _90
REMARK   41  A    between atoms: _99  and  _101
REMARK   42  A    between atoms: _101  and  _102
REMARK   43  A    between atoms: _101  and  _104
REMARK   44  A    between atoms: _104  and  _105
REMARK   45  A    between atoms: _110  and  _112
REMARK   46  A    between atoms: _112  and  _113
REMARK   47  A    between atoms: _112  and  _115
REMARK   48  A    between atoms: _115  and  _116
REMARK   49  A    between atoms: _121  and  _123
REMARK   50  A    between atoms: _123  and  _124
REMARK   51  A    between atoms: _123  and  _126
REMARK   52  A    between atoms: _126  and  _127
REMARK   53  A    between atoms: _127  and  _128
REMARK   54  A    between atoms: _128  and  _129
REMARK   55  A    between atoms: _138  and  _140
REMARK   56  A    between atoms: _140  and  _141
REMARK   57  A    between atoms: _140  and  _143
REMARK   58  A    between atoms: _143  and  _144
REMARK   59  A    between atoms: _146  and  _148
REMARK   60  A    between atoms: _148  and  _149
REMARK   61  A    between atoms: _148  and  _151
REMARK   62  A    between atoms: _151  and  _152
REMARK   63  A    between atoms: _157  and  _159
REMARK   64  A    between atoms: _159  and  _160
REMARK   65  A    between atoms: _159  and  _162
REMARK   66  A    between atoms: _162  and  _163
REMARK   67  A    between atoms: _163  and  _164
REMARK   68  A    between atoms: _167  and  _169
REMARK   69  A    between atoms: _169  and  _170
REMARK   70  A    between atoms: _169  and  _172
REMARK   71  A    between atoms: _172  and  _173
REMARK   72  A    between atoms: _173  and  _174
REMARK   73  A    between atoms: _174  and  _176
REMARK   74  A    between atoms: _176  and  MG_430
REMARK   75  A    between atoms: _177  and  _179
REMARK   76  A    between atoms: _179  and  _180
REMARK   77  A    between atoms: _179  and  _182
REMARK   78  A    between atoms: _182  and  _183
REMARK   79  A    between atoms: _188  and  _190
REMARK   80  A    between atoms: _190  and  _191
REMARK   81  A    between atoms: _193  and  _195
REMARK   82  A    between atoms: _195  and  _196
REMARK   83  A    between atoms: _195  and  _198
REMARK   84  A    between atoms: _198  and  _199
REMARK   85  A    between atoms: _202  and  _204
REMARK   86  A    between atoms: _204  and  _205
REMARK   87  A    between atoms: _204  and  _207
REMARK   88  A    between atoms: _207  and  _208
REMARK   89  A    between atoms: _208  and  _209
REMARK   90  A    between atoms: _209  and  _210
REMARK   91  A    between atoms: _210  and  MG_430
REMARK   92  A    between atoms: _212  and  _214
REMARK   93  A    between atoms: _214  and  _215
REMARK   94  A    between atoms: _214  and  _217
REMARK   95  A    between atoms: _217  and  _218
REMARK   96  A    between atoms: _218  and  _219
REMARK   97  A    between atoms: _222  and  _224
REMARK   98  A    between atoms: _224  and  _225
REMARK   99  A    between atoms: _224  and  _227
REMARK  100  A    between atoms: _227  and  _228
REMARK  101  A    between atoms: _228  and  _229
REMARK  102  A    between atoms: _231  and  _233
REMARK  103  A    between atoms: _233  and  _234
REMARK  104  A    between atoms: _233  and  _236
REMARK  105  A    between atoms: _236  and  _237
REMARK  106  A    between atoms: _242  and  _243
REMARK  107  A    between atoms: _245  and  _247
REMARK  108  A    between atoms: _247  and  _248
REMARK  109  A    between atoms: _247  and  _250
REMARK  110  A    between atoms: _250  and  _251
REMARK  111  A    between atoms: _251  and  _252
REMARK  112  A    between atoms: _252  and  _253
REMARK  113  A    between atoms: _253  and  _254
REMARK  114  A    between atoms: _258  and  _260
REMARK  115  A    between atoms: _260  and  _261
REMARK  116  A    between atoms: _260  and  _263
REMARK  117  A    between atoms: _265  and  _267
REMARK  118  A    between atoms: _267  and  _268
REMARK  119  A    between atoms: _267  and  _270
REMARK  120  A    between atoms: _270  and  _271
REMARK  121  A    between atoms: _271  and  _272
REMARK  122  A    between atoms: _275  and  _277
REMARK  123  A    between atoms: _277  and  _278
REMARK  124  A    between atoms: _277  and  _280
REMARK  125  A    between atoms: _280  and  _281
REMARK  126  A    between atoms: _286  and  _288
REMARK  127  A    between atoms: _288  and  _289
REMARK  128  A    between atoms: _292  and  _294
REMARK  129  A    between atoms: _294  and  _295
REMARK  130  A    between atoms: _294  and  _297
REMARK  131  A    between atoms: _297  and  _298
REMARK  132  A    between atoms: _298  and  _299
REMARK  133  A    between atoms: _301  and  _303
REMARK  134  A    between atoms: _303  and  _304
REMARK  135  A    between atoms: _303  and  _306
REMARK  136  A    between atoms: _306  and  _307
REMARK  137  A    between atoms: _317  and  _319
REMARK  138  A    between atoms: _319  and  _320
REMARK  139  A    between atoms: _319  and  _322
REMARK  140  A    between atoms: _322  and  _323
REMARK  141  A    between atoms: _326  and  _328
REMARK  142  A    between atoms: _328  and  _329
REMARK  143  A    between atoms: _328  and  _331
REMARK  144  A    between atoms: _331  and  _332
REMARK  145  A    between atoms: _332  and  _333
REMARK  146  A    between atoms: _338  and  _340
REMARK  147  A    between atoms: _340  and  _341
REMARK  148  A    between atoms: _340  and  _343
REMARK  149  A    between atoms: _343  and  _344
REMARK  150  A    between atoms: _344  and  _345
REMARK  151  A    between atoms: _350  and  _352
REMARK  152  A    between atoms: _352  and  _353
REMARK  153  A    between atoms: _352  and  _355
REMARK  154  A    between atoms: _355  and  _356
REMARK  155  A    between atoms: _362  and  _364
REMARK  156  A    between atoms: _364  and  _365
REMARK  157  A    between atoms: _364  and  _367
REMARK  158  A    between atoms: _369  and  _371
REMARK  159  A    between atoms: _371  and  _372
REMARK  160  A    between atoms: _371  and  _374
REMARK  161  A    between atoms: _374  and  _375
REMARK  162  A    between atoms: _375  and  _376
REMARK  163  A    between atoms: _378  and  _380
REMARK  164  A    between atoms: _380  and  _381
REMARK  165  A    between atoms: _380  and  _383
REMARK  166  A    between atoms: _383  and  _384
REMARK  167  A    between atoms: _384  and  _385
REMARK  168  A    between atoms: _384  and  _386
REMARK  169  A    between atoms: _389  and  _391
REMARK  170  A    between atoms: _391  and  _392
REMARK  171  A    between atoms: _391  and  _394
REMARK  172  A    between atoms: _394  and  _395
REMARK  173  A    between atoms: _397  and  _399
REMARK  174  A    between atoms: _399  and  _400
REMARK  175  A    between atoms: _399  and  _402
REMARK  176  A    between atoms: _402  and  _403
REMARK  177  A    between atoms: _406  and  _408
REMARK  178  A    between atoms: _408  and  _409
REMARK  179  A    between atoms: _408  and  _411
REMARK  180  A    between atoms: _411  and  _412
REMARK  181  A    between atoms: _414  and  _416
REMARK  182  A    between atoms: _416  and  _417
REMARK  183  A    between atoms: _416  and  _419
REMARK  184  A    between atoms: _419  and  _420
REMARK                            x       y       z     vdW  Elec       q    Type
REMARK                         _______ _______ _______ _____ _____    ______ ____
ROOT
ATOM      1  CA  GLU A   1      -7.842 -21.658 -17.378  0.00  0.00    +0.134 C 
ENDROOT
BRANCH   1   2
ATOM      2  N   GLU A   1      -6.600 -22.279 -16.885  0.00  0.00    -0.239 NA
ATOM      3  H   GLU A   1      -6.275 -23.165 -17.322  0.00  0.00    +0.142 HD
ENDBRANCH   1   2
BRANCH   1   4
ATOM      4  C   GLU A   1      -9.120 -22.029 -16.622  0.00  0.00    +0.224 C 
ATOM      5  O   GLU A   1     -10.108 -21.284 -16.682  0.00  0.00    -0.287 OA
ENDBRANCH   1   4
BRANCH   1   6
ATOM      6  CB  GLU A   1      -8.024 -21.956 -18.877  0.00  0.00    +0.037 C 
BRANCH   6   7
ATOM      7  CG  GLU A   1      -9.269 -21.339 -19.520  0.00  0.00    +0.116 C 
BRANCH   7   8
ATOM      8  CD  GLU A   1     -10.543 -22.164 -19.312  0.00  0.00    +0.365 C 
ATOM      9  OE2 GLU A   1     -10.457 -23.356 -18.937  0.00  0.00    -0.246 OA
ATOM     10  OE1 GLU A   1     -11.637 -21.606 -19.510  0.00  0.00    -0.246 OA
ENDBRANCH   7   8
ENDBRANCH   6   7
ENDBRANCH   1   6
TORSDOF 5
REMARK  Name = ../refined-set-2016/3vdb/3vdb_pocket.pdb
REMARK  184 active torsions:
REMARK  status: ('A' for Active; 'I' for Inactive)
REMARK    1  A    between atoms: _1  and  _3
REMARK    2  A    between atoms: _3  and  _4
REMARK    3  A    between atoms: _3  and  _6
REMARK    4  A    between atoms: _6  and  _7
REMARK    5  A    between atoms: _12  and  _13
REMARK    6  A    between atoms: _15  and  _17
REMARK    7  A    between atoms: _17  and  _18
REMARK    8  A    between atoms: _17  and  _20
REMARK    9  A    between atoms: _20  and  _21
REMARK   10  A    between atoms: _24  and  _26
REMARK   11  A    between atoms: _26  and  _27
REMARK   12  A    between atoms: _26  and  _29
REMARK   13  A    between atoms: _29  and  _30
REMARK   14  A    between atoms: _35  and  _37
REMARK   15  A    between atoms: _37  and  _38
REMARK   16  A    between atoms: _37  and  _40
REMARK   17  A    between atoms: _43  and  _45
REMARK   18  A    between atoms: _45  and  _46
REMARK   19  A    between atoms: _45  and  _48
REMARK   20  A    between atoms: _48  and  _49
REMARK   21  A    between atoms: _52  and  _54
REMARK   22  A    between atoms: _54  and  _55
REMARK   23  A    between atoms: _54  and  _57
REMARK   24  A    between atoms: _57  and  _58
REMARK   25  A    between atoms: _58  and  _59
REMARK   26  A    between atoms: _64  and  _66
REMARK   27  A    between atoms: _66  and  _67
REMARK   28  A    between atoms: _66  and  _69
REMARK   29  A    between atoms: _69  and  _70
REMARK   30  A    between atoms: _73  and  _75
REMARK   31  A    between atoms: _75  and  _76
REMARK   32  A    between atoms: _75  and  _78
REMARK   33  A    between atoms: _78  and  _79
REMARK   34  A    between atoms: _79  and  _80
REMARK   35  A    between atoms: _82  and  _84
REMARK   36  A    between atoms: _84  and  _85
REMARK   37  A    between atoms: _84  and  _87
REMARK   38  A    between atoms: _87  and  _88
REMARK   39  A    between atoms: _88  and  _89
REMARK   40  A    between atoms: _89  and  _90
REMARK   41  A    between atoms: _99  and  _101
REMARK   42  A    between atoms: _101  and  _102
REMARK   43  A    between atoms: _101  and  _104
REMARK   44  A    between atoms: _104  and  _105
REMARK   45  A    between atoms: _110  and  _112
REMARK   46  A    between atoms: _112  and  _113
REMARK   47  A    between atoms: _112  and  _115
REMARK   48  A    between atoms: _115  and  _116
REMARK   49  A    between atoms: _121  and  _123
REMARK   50  A    between atoms: _123  and  _124
REMARK   51  A    between atoms: _123  and  _126
REMARK   52  A    between atoms: _126  and  _127
REMARK   53  A    between atoms: _127  and  _128
REMARK   54  A    between atoms: _128  and  _129
REMARK   55  A    between atoms: _138  and  _140
REMARK   56  A    between atoms: _140  and  _141
REMARK   57  A    between atoms: _140  and  _143
REMARK   58  A    between atoms: _143  and  _144
REMARK   59  A    between atoms: _146  and  _148
REMARK   60  A    between atoms: _148  and  _149
REMARK   61  A    between atoms: _148  and  _151
REMARK   62  A    between atoms: _151  and  _152
REMARK   63  A    between atoms: _157  and  _159
REMARK   64  A    between atoms: _159  and  _160
REMARK   65  A    between atoms: _159  and  _162
REMARK   66  A    between atoms: _162  and  _163
REMARK   67  A    between atoms: _163  and  _164
REMARK   68  A    between atoms: _167  and  _169
REMARK   69  A    between atoms: _169  and  _170
REMARK   70  A    between atoms: _169  and  _172
REMARK   71  A    between atoms: _172  and  _173
REMARK   72  A    between atoms: _173  and  _174
REMARK   73  A    between atoms: _174  and  _176
REMARK   74  A    between atoms: _176  and  MG_430
REMARK   75  A    between atoms: _177  and  _179
REMARK   76  A    between atoms: _179  and  _180
REMARK   77  A    between atoms: _179  and  _182
REMARK   78  A    between atoms: _182  and  _183
REMARK   79  A    between atoms: _188  and  _190
REMARK   80  A    between atoms: _190  and  _191
REMARK   81  A    between atoms: _193  and  _195
REMARK   82  A    between atoms: _195  and  _196
REMARK   83  A    between atoms: _195  and  _198
REMARK   84  A    between atoms: _198  and  _199
REMARK   85  A    between atoms: _202  and  _204
REMARK   86  A    between atoms: _204  and  _205
REMARK   87  A    between atoms: _204  and  _207
REMARK   88  A    between atoms: _207  and  _208
REMARK   89  A    between atoms: _208  and  _209
REMARK   90  A    between atoms: _209  and  _210
REMARK   91  A    between atoms: _210  and  MG_430
REMARK   92  A    between atoms: _212  and  _214
REMARK   93  A    between atoms: _214  and  _215
REMARK   94  A    between atoms: _214  and  _217
REMARK   95  A    between atoms: _217  and  _218
REMARK   96  A    between atoms: _218  and  _219
REMARK   97  A    between atoms: _222  and  _224
REMARK   98  A    between atoms: _224  and  _225
REMARK   99  A    between atoms: _224  and  _227
REMARK  100  A    between atoms: _227  and  _228
REMARK  101  A    between atoms: _228  and  _229
REMARK  102  A    between atoms: _231  and  _233
REMARK  103  A    between atoms: _233  and  _234
REMARK  104  A    between atoms: _233  and  _236
REMARK  105  A    between atoms: _236  and  _237
REMARK  106  A    between atoms: _242  and  _243
REMARK  107  A    between atoms: _245  and  _247
REMARK  108  A    between atoms: _247  and  _248
REMARK  109  A    between atoms: _247  and  _250
REMARK  110  A    between atoms: _250  and  _251
REMARK  111  A    between atoms: _251  and  _252
REMARK  112  A    between atoms: _252  and  _253
REMARK  113  A    between atoms: _253  and  _254
REMARK  114  A    between atoms: _258  and  _260
REMARK  115  A    between atoms: _260  and  _261
REMARK  116  A    between atoms: _260  and  _263
REMARK  117  A    between atoms: _265  and  _267
REMARK  118  A    between atoms: _267  and  _268
REMARK  119  A    between atoms: _267  and  _270
REMARK  120  A    between atoms: _270  and  _271
REMARK  121  A    between atoms: _271  and  _272
REMARK  122  A    between atoms: _275  and  _277
REMARK  123  A    between atoms: _277  and  _278
REMARK  124  A    between atoms: _277  and  _280
REMARK  125  A    between atoms: _280  and  _281
REMARK  126  A    between atoms: _286  and  _288
REMARK  127  A    between atoms: _288  and  _289
REMARK  128  A    between atoms: _292  and  _294
REMARK  129  A    between atoms: _294  and  _295
REMARK  130  A    between atoms: _294  and  _297
REMARK  131  A    between atoms: _297  and  _298
REMARK  132  A    between atoms: _298  and  _299
REMARK  133  A    between atoms: _301  and  _303
REMARK  134  A    between atoms: _303  and  _304
REMARK  135  A    between atoms: _303  and  _306
REMARK  136  A    between atoms: _306  and  _307
REMARK  137  A    between atoms: _317  and  _319
REMARK  138  A    between atoms: _319  and  _320
REMARK  139  A    between atoms: _319  and  _322
REMARK  140  A    between atoms: _322  and  _323
REMARK  141  A    between atoms: _326  and  _328
REMARK  142  A    between atoms: _328  and  _329
REMARK  143  A    between atoms: _328  and  _331
REMARK  144  A    between atoms: _331  and  _332
REMARK  145  A    between atoms: _332  and  _333
REMARK  146  A    between atoms: _338  and  _340
REMARK  147  A    between atoms: _340  and  _341
REMARK  148  A    between atoms: _340  and  _343
REMARK  149  A    between atoms: _343  and  _344
REMARK  150  A    between atoms: _344  and  _345
REMARK  151  A    between atoms: _350  and  _352
REMARK  152  A    between atoms: _352  and  _353
REMARK  153  A    between atoms: _352  and  _355
REMARK  154  A    between atoms: _355  and  _356
REMARK  155  A    between atoms: _362  and  _364
REMARK  156  A    between atoms: _364  and  _365
REMARK  157  A    between atoms: _364  and  _367
REMARK  158  A    between atoms: _369  and  _371
REMARK  159  A    between atoms: _371  and  _372
REMARK  160  A    between atoms: _371  and  _374
REMARK  161  A    between atoms: _374  and  _375
REMARK  162  A    between atoms: _375  and  _376
REMARK  163  A    between atoms: _378  and  _380
REMARK  164  A    between atoms: _380  and  _381
REMARK  165  A    between atoms: _380  and  _383
REMARK  166  A    between atoms: _383  and  _384
REMARK  167  A    between atoms: _384  and  _385
REMARK  168  A    between atoms: _384  and  _386
REMARK  169  A    between atoms: _389  and  _391
REMARK  170  A    between atoms: _391  and  _392
REMARK  171  A    between atoms: _391  and  _394
REMARK  172  A    between atoms: _394  and  _395
REMARK  173  A    between atoms: _397  and  _399
REMARK  174  A    between atoms: _399  and  _400
REMARK  175  A    between atoms: _399  and  _402
REMARK  176  A    between atoms: _402  and  _403
REMARK  177  A    between atoms: _406  and  _408
REMARK  178  A    between atoms: _408  and  _409
REMARK  179  A    between atoms: _408  and  _411
REMARK  180  A    between atoms: _411  and  _412
REMARK  181  A    between atoms: _414  and  _416
REMARK  182  A    between atoms: _416  and  _417
REMARK  183  A    between atoms: _416  and  _419
REMARK  184  A    between atoms: _419  and  _420
REMARK                            x       y       z     vdW  Elec       q    Type
REMARK                         _______ _______ _______ _____ _____    ______ ____
ROOT
ATOM      1  CA  TYR A   2     -12.574 -18.776 -27.145  0.00  0.00    +0.141 C 
ENDROOT
BRANCH   1   4
ATOM      2  C   MET A   1     -11.785 -19.690 -24.983  0.00  0.00    +0.238 C 
ATOM      3  O   MET A   1     -12.903 -19.690 -24.471  0.00  0.00    -0.274 OA
ATOM      4  N   TYR A   2     -11.531 -19.226 -26.205  0.00  0.00    -0.298 N 
ATOM      5  H   TYR A   2     -10.539 -19.178 -26.514  0.00  0.00    +0.150 HD
BRANCH   2   6
ATOM      6  CA  MET A   1     -10.586 -20.217 -24.208  0.00  0.00    +0.146 C 
BRANCH   6   7
ATOM      7  N   MET A   1     -10.448 -19.429 -22.995  0.00  0.00    -0.238 NA
ATOM      8  H   MET A   1     -11.188 -19.494 -22.267  0.00  0.00    +0.142 HD
ENDBRANCH   6   7
BRANCH   6   9
ATOM      9  CB  MET A   1     -10.790 -21.698 -23.883  0.00  0.00    +0.038 C 
BRANCH   9  10
ATOM     10  CG  MET A   1      -9.741 -22.281 -22.955  0.00  0.00    +0.060 C 
BRANCH  10  11
ATOM     11  SD  MET A   1      -9.781 -24.083 -22.800  0.00  0.00    -0.139 S 
ATOM     12  CE  MET A   1     -11.485 -24.360 -22.317  0.00  0.00    +0.069 C 
ENDBRANCH  10  11
ENDBRANCH   9  10
ENDBRANCH   6   9
ENDBRANCH   2   6
ENDBRANCH   1   4
BRANCH   1  13
ATOM     13  C   TYR A   2     -13.376 -17.577 -26.632  0.00  0.00    +0.227 C 
ATOM     14  O   TYR A   2     -14.533 -17.388 -27.009  0.00  0.00    -0.286 OA
ENDBRANCH   1  13
BRANCH   1  15
ATOM     15  CB  TYR A   2     -13.477 -19.955 -27.576  0.00  0.00    +0.054 C 
BRANCH  15  16
ATOM     16  CG  TYR A   2     -12.660 -21.202 -27.866  0.00  0.00    -0.020 A 
ATOM     17  CD2 TYR A   2     -12.588 -22.235 -26.938  0.00  0.00    -0.001 A 
ATOM     18  CE2 TYR A   2     -11.822 -23.357 -27.171  0.00  0.00    +0.036 A 
ATOM     19  CZ  TYR A   2     -11.102 -23.460 -28.348  0.00  0.00    +0.134 A 
ATOM     20  CE1 TYR A   2     -11.143 -22.450 -29.293  0.00  0.00    +0.036 A 
ATOM     21  CD1 TYR A   2     -11.930 -21.323 -29.046  0.00  0.00    -0.001 A 
BRANCH  19  22
ATOM     22  OH  TYR A   2     -10.355 -24.584 -28.568  0.00  0.00    -0.506 OA
ATOM     23  HH  TYR A   2      -9.678 -24.674 -27.852  0.00  0.00    +0.292 HD
ENDBRANCH  19  22
ENDBRANCH  15  16
ENDBRANCH   1  15
TORSDOF 10
REMARK  Name = ../refined-set-2016/3vdb/3vdb_pocket.pdb
REMARK  184 active torsions:
REMARK  status: ('A' for Active; 'I' for Inactive)
REMARK    1  A    between atoms: _1  and  _3
REMARK    2  A    between atoms: _3  and  _4
REMARK    3  A    between atoms: _3  and  _6
REMARK    4  A    between atoms: _6  and  _7
REMARK    5  A    between atoms: _12  and  _13
REMARK    6  A    between atoms: _15  and  _17
REMARK    7  A    between atoms: _17  and  _18
REMARK    8  A    between atoms: _17  and  _20
REMARK    9  A    between atoms: _20  and  _21
REMARK   10  A    between atoms: _24  and  _26
REMARK   11  A    between atoms: _26  and  _27
REMARK   12  A    between atoms: _26  and  _29
REMARK   13  A    between atoms: _29  and  _30
REMARK   14  A    between atoms: _35  and  _37
REMARK   15  A    between atoms: _37  and  _38
REMARK   16  A    between atoms: _37  and  _40
REMARK   17  A    between atoms: _43  and  _45
REMARK   18  A    between atoms: _45  and  _46
REMARK   19  A    between atoms: _45  and  _48
REMARK   20  A    between atoms: _48  and  _49
REMARK   21  A    between atoms: _52  and  _54
REMARK   22  A    between atoms: _54  and  _55
REMARK   23  A    between atoms: _54  and  _57
REMARK   24  A    between atoms: _57  and  _58
REMARK   25  A    between atoms: _58  and  _59
REMARK   26  A    between atoms: _64  and  _66
REMARK   27  A    between atoms: _66  and  _67
REMARK   28  A    between atoms: _66  and  _69
REMARK   29  A    between atoms: _69  and  _70
REMARK   30  A    between atoms: _73  and  _75
REMARK   31  A    between atoms: _75  and  _76
REMARK   32  A    between atoms: _75  and  _78
REMARK   33  A    between atoms: _78  and  _79
REMARK   34  A    between atoms: _79  and  _80
REMARK   35  A    between atoms: _82  and  _84
REMARK   36  A    between atoms: _84  and  _85
REMARK   37  A    between atoms: _84  and  _87
REMARK   38  A    between atoms: _87  and  _88
REMARK   39  A    between atoms: _88  and  _89
REMARK   40  A    between atoms: _89  and  _90
REMARK   41  A    between atoms: _99  and  _101
REMARK   42  A    between atoms: _101  and  _102
REMARK   43  A    between atoms: _101  and  _104
REMARK   44  A    between atoms: _104  and  _105
REMARK   45  A    between atoms: _110  and  _112
REMARK   46  A    between atoms: _112  and  _113
REMARK   47  A    between atoms: _112  and  _115
REMARK   48  A    between atoms: _115  and  _116
REMARK   49  A    between atoms: _121  and  _123
REMARK   50  A    between atoms: _123  and  _124
REMARK   51  A    between atoms: _123  and  _126
REMARK   52  A    between atoms: _126  and  _127
REMARK   53  A    between atoms: _127  and  _128
REMARK   54  A    between atoms: _128  and  _129
REMARK   55  A    between atoms: _138  and  _140
REMARK   56  A    between atoms: _140  and  _141
REMARK   57  A    between atoms: _140  and  _143
REMARK   58  A    between atoms: _143  and  _144
REMARK   59  A    between atoms: _146  and  _148
REMARK   60  A    between atoms: _148  and  _149
REMARK   61  A    between atoms: _148  and  _151
REMARK   62  A    between atoms: _151  and  _152
REMARK   63  A    between atoms: _157  and  _159
REMARK   64  A    between atoms: _159  and  _160
REMARK   65  A    between atoms: _159  and  _162
REMARK   66  A    between atoms: _162  and  _163
REMARK   67  A    between atoms: _163  and  _164
REMARK   68  A    between atoms: _167  and  _169
REMARK   69  A    between atoms: _169  and  _170
REMARK   70  A    between atoms: _169  and  _172
REMARK   71  A    between atoms: _172  and  _173
REMARK   72  A    between atoms: _173  and  _174
REMARK   73  A    between atoms: _174  and  _176
REMARK   74  A    between atoms: _176  and  MG_430
REMARK   75  A    between atoms: _177  and  _179
REMARK   76  A    between atoms: _179  and  _180
REMARK   77  A    between atoms: _179  and  _182
REMARK   78  A    between atoms: _182  and  _183
REMARK   79  A    between atoms: _188  and  _190
REMARK   80  A    between atoms: _190  and  _191
REMARK   81  A    between atoms: _193  and  _195
REMARK   82  A    between atoms: _195  and  _196
REMARK   83  A    between atoms: _195  and  _198
REMARK   84  A    between atoms: _198  and  _199
REMARK   85  A    between atoms: _202  and  _204
REMARK   86  A    between atoms: _204  and  _205
REMARK   87  A    between atoms: _204  and  _207
REMARK   88  A    between atoms: _207  and  _208
REMARK   89  A    between atoms: _208  and  _209
REMARK   90  A    between atoms: _209  and  _210
REMARK   91  A    between atoms: _210  and  MG_430
REMARK   92  A    between atoms: _212  and  _214
REMARK   93  A    between atoms: _214  and  _215
REMARK   94  A    between atoms: _214  and  _217
REMARK   95  A    between atoms: _217  and  _218
REMARK   96  A    between atoms: _218  and  _219
REMARK   97  A    between atoms: _222  and  _224
REMARK   98  A    between atoms: _224  and  _225
REMARK   99  A    between atoms: _224  and  _227
REMARK  100  A    between atoms: _227  and  _228
REMARK  101  A    between atoms: _228  and  _229
REMARK  102  A    between atoms: _231  and  _233
REMARK  103  A    between atoms: _233  and  _234
REMARK  104  A    between atoms: _233  and  _236
REMARK  105  A    between atoms: _236  and  _237
REMARK  106  A    between atoms: _242  and  _243
REMARK  107  A    between atoms: _245  and  _247
REMARK  108  A    between atoms: _247  and  _248
REMARK  109  A    between atoms: _247  and  _250
REMARK  110  A    between atoms: _250  and  _251
REMARK  111  A    between atoms: _251  and  _252
REMARK  112  A    between atoms: _252  and  _253
REMARK  113  A    between atoms: _253  and  _254
REMARK  114  A    between atoms: _258  and  _260
REMARK  115  A    between atoms: _260  and  _261
REMARK  116  A    between atoms: _260  and  _263
REMARK  117  A    between atoms: _265  and  _267
REMARK  118  A    between atoms: _267  and  _268
REMARK  119  A    between atoms: _267  and  _270
REMARK  120  A    between atoms: _270  and  _271
REMARK  121  A    between atoms: _271  and  _272
REMARK  122  A    between atoms: _275  and  _277
REMARK  123  A    between atoms: _277  and  _278
REMARK  124  A    between atoms: _277  and  _280
REMARK  125  A    between atoms: _280  and  _281
REMARK  126  A    between atoms: _286  and  _288
REMARK  127  A    between atoms: _288  and  _289
REMARK  128  A    between atoms: _292  and  _294
REMARK  129  A    between atoms: _294  and  _295
REMARK  130  A    between atoms: _294  and  _297
REMARK  131  A    between atoms: _297  and  _298
REMARK  132  A    between atoms: _298  and  _299
REMARK  133  A    between atoms: _301  and  _303
REMARK  134  A    between atoms: _303  and  _304
REMARK  135  A    between atoms: _303  and  _306
REMARK  136  A    between atoms: _306  and  _307
REMARK  137  A    between atoms: _317  and  _319
REMARK  138  A    between atoms: _319  and  _320
REMARK  139  A    between atoms: _319  and  _322
REMARK  140  A    between atoms: _322  and  _323
REMARK  141  A    between atoms: _326  and  _328
REMARK  142  A    between atoms: _328  and  _329
REMARK  143  A    between atoms: _328  and  _331
REMARK  144  A    between atoms: _331  and  _332
REMARK  145  A    between atoms: _332  and  _333
REMARK  146  A    between atoms: _338  and  _340
REMARK  147  A    between atoms: _340  and  _341
REMARK  148  A    between atoms: _340  and  _343
REMARK  149  A    between atoms: _343  and  _344
REMARK  150  A    between atoms: _344  and  _345
REMARK  151  A    between atoms: _350  and  _352
REMARK  152  A    between atoms: _352  and  _353
REMARK  153  A    between atoms: _352  and  _355
REMARK  154  A    between atoms: _355  and  _356
REMARK  155  A    between atoms: _362  and  _364
REMARK  156  A    between atoms: _364  and  _365
REMARK  157  A    between atoms: _364  and  _367
REMARK  158  A    between atoms: _369  and  _371
REMARK  159  A    between atoms: _371  and  _372
REMARK  160  A    between atoms: _371  and  _374
REMARK  161  A    between atoms: _374  and  _375
REMARK  162  A    between atoms: _375  and  _376
REMARK  163  A    between atoms: _378  and  _380
REMARK  164  A    between atoms: _380  and  _381
REMARK  165  A    between atoms: _380  and  _383
REMARK  166  A    between atoms: _383  and  _384
REMARK  167  A    between atoms: _384  and  _385
REMARK  168  A    between atoms: _384  and  _386
REMARK  169  A    between atoms: _389  and  _391
REMARK  170  A    between atoms: _391  and  _392
REMARK  171  A    between atoms: _391  and  _394
REMARK  172  A    between atoms: _394  and  _395
REMARK  173  A    between atoms: _397  and  _399
REMARK  174  A    between atoms: _399  and  _400
REMARK  175  A    between atoms: _399  and  _402
REMARK  176  A    between atoms: _402  and  _403
REMARK  177  A    between atoms: _406  and  _408
REMARK  178  A    between atoms: _408  and  _409
REMARK  179  A    between atoms: _408  and  _411
REMARK  180  A    between atoms: _411  and  _412
REMARK  181  A    between atoms: _414  and  _416
REMARK  182  A    between atoms: _416  and  _417
REMARK  183  A    between atoms: _416  and  _419
REMARK  184  A    between atoms: _419  and  _420
REMARK                            x       y       z     vdW  Elec       q    Type
REMARK                         _______ _______ _______ _____ _____    ______ ____
ROOT
ATOM      1  CG  LYS A   1     -15.934 -17.727 -22.096  0.00  0.00    -0.000 C 
ENDROOT
BRANCH   1   2
ATOM      2  CB  LYS A   1     -16.103 -16.262 -22.438  0.00  0.00    +0.025 C 
BRANCH   2   3
ATOM      3  CA  LYS A   1     -16.190 -15.320 -21.232  0.00  0.00    +0.133 C 
BRANCH   3   4
ATOM      4  N   LYS A   1     -17.299 -15.653 -20.345  0.00  0.00    -0.239 NA
ATOM      5  H   LYS A   1     -18.242 -15.821 -20.750  0.00  0.00    +0.142 HD
ENDBRANCH   3   4
BRANCH   3   6
ATOM      6  C   LYS A   1     -16.402 -13.892 -21.695  0.00  0.00    +0.224 C 
ATOM      7  O   LYS A   1     -17.152 -13.631 -22.643  0.00  0.00    -0.287 OA
ENDBRANCH   3   6
ENDBRANCH   2   3
ENDBRANCH   1   2
BRANCH   1   8
ATOM      8  CD  LYS A   1     -15.801 -18.557 -23.369  0.00  0.00    -0.024 C 
BRANCH   8   9
ATOM      9  CE  LYS A   1     -15.860 -20.041 -23.067  0.00  0.00    -0.086 C 
BRANCH   9  10
ATOM     10  NZ  LYS A   1     -14.690 -20.483 -22.265  0.00  0.00    +0.380 N 
ATOM     11  HZ1 LYS A   1     -14.673 -19.964 -21.364  0.00  0.00    -0.089 HD
ATOM     12  HZ2 LYS A   1     -14.765 -21.503 -22.078  0.00  0.00    -0.089 HD
ATOM     13  HZ3 LYS A   1     -13.816 -20.290 -22.794  0.00  0.00    -0.089 HD
ENDBRANCH   9  10
ENDBRANCH   8   9
ENDBRANCH   1   8
TORSDOF 7
REMARK  Name = ../refined-set-2016/3vdb/3vdb_pocket.pdb
REMARK  184 active torsions:
REMARK  status: ('A' for Active; 'I' for Inactive)
REMARK    1  A    between atoms: _1  and  _3
REMARK    2  A    between atoms: _3  and  _4
REMARK    3  A    between atoms: _3  and  _6
REMARK    4  A    between atoms: _6  and  _7
REMARK    5  A    between atoms: _12  and  _13
REMARK    6  A    between atoms: _15  and  _17
REMARK    7  A    between atoms: _17  and  _18
REMARK    8  A    between atoms: _17  and  _20
REMARK    9  A    between atoms: _20  and  _21
REMARK   10  A    between atoms: _24  and  _26
REMARK   11  A    between atoms: _26  and  _27
REMARK   12  A    between atoms: _26  and  _29
REMARK   13  A    between atoms: _29  and  _30
REMARK   14  A    between atoms: _35  and  _37
REMARK   15  A    between atoms: _37  and  _38
REMARK   16  A    between atoms: _37  and  _40
REMARK   17  A    between atoms: _43  and  _45
REMARK   18  A    between atoms: _45  and  _46
REMARK   19  A    between atoms: _45  and  _48
REMARK   20  A    between atoms: _48  and  _49
REMARK   21  A    between atoms: _52  and  _54
REMARK   22  A    between atoms: _54  and  _55
REMARK   23  A    between atoms: _54  and  _57
REMARK   24  A    between atoms: _57  and  _58
REMARK   25  A    between atoms: _58  and  _59
REMARK   26  A    between atoms: _64  and  _66
REMARK   27  A    between atoms: _66  and  _67
REMARK   28  A    between atoms: _66  and  _69
REMARK   29  A    between atoms: _69  and  _70
REMARK   30  A    between atoms: _73  and  _75
REMARK   31  A    between atoms: _75  and  _76
REMARK   32  A    between atoms: _75  and  _78
REMARK   33  A    between atoms: _78  and  _79
REMARK   34  A    between atoms: _79  and  _80
REMARK   35  A    between atoms: _82  and  _84
REMARK   36  A    between atoms: _84  and  _85
REMARK   37  A    between atoms: _84  and  _87
REMARK   38  A    between atoms: _87  and  _88
REMARK   39  A    between atoms: _88  and  _89
REMARK   40  A    between atoms: _89  and  _90
REMARK   41  A    between atoms: _99  and  _101
REMARK   42  A    between atoms: _101  and  _102
REMARK   43  A    between atoms: _101  and  _104
REMARK   44  A    between atoms: _104  and  _105
REMARK   45  A    between atoms: _110  and  _112
REMARK   46  A    between atoms: _112  and  _113
REMARK   47  A    between atoms: _112  and  _115
REMARK   48  A    between atoms: _115  and  _116
REMARK   49  A    between atoms: _121  and  _123
REMARK   50  A    between atoms: _123  and  _124
REMARK   51  A    between atoms: _123  and  _126
REMARK   52  A    between atoms: _126  and  _127
REMARK   53  A    between atoms: _127  and  _128
REMARK   54  A    between atoms: _128  and  _129
REMARK   55  A    between atoms: _138  and  _140
REMARK   56  A    between atoms: _140  and  _141
REMARK   57  A    between atoms: _140  and  _143
REMARK   58  A    between atoms: _143  and  _144
REMARK   59  A    between atoms: _146  and  _148
REMARK   60  A    between atoms: _148  and  _149
REMARK   61  A    between atoms: _148  and  _151
REMARK   62  A    between atoms: _151  and  _152
REMARK   63  A    between atoms: _157  and  _159
REMARK   64  A    between atoms: _159  and  _160
REMARK   65  A    between atoms: _159  and  _162
REMARK   66  A    between atoms: _162  and  _163
REMARK   67  A    between atoms: _163  and  _164
REMARK   68  A    between atoms: _167  and  _169
REMARK   69  A    between atoms: _169  and  _170
REMARK   70  A    between atoms: _169  and  _172
REMARK   71  A    between atoms: _172  and  _173
REMARK   72  A    between atoms: _173  and  _174
REMARK   73  A    between atoms: _174  and  _176
REMARK   74  A    between atoms: _176  and  MG_430
REMARK   75  A    between atoms: _177  and  _179
REMARK   76  A    between atoms: _179  and  _180
REMARK   77  A    between atoms: _179  and  _182
REMARK   78  A    between atoms: _182  and  _183
REMARK   79  A    between atoms: _188  and  _190
REMARK   80  A    between atoms: _190  and  _191
REMARK   81  A    between atoms: _193  and  _195
REMARK   82  A    between atoms: _195  and  _196
REMARK   83  A    between atoms: _195  and  _198
REMARK   84  A    between atoms: _198  and  _199
REMARK   85  A    between atoms: _202  and  _204
REMARK   86  A    between atoms: _204  and  _205
REMARK   87  A    between atoms: _204  and  _207
REMARK   88  A    between atoms: _207  and  _208
REMARK   89  A    between atoms: _208  and  _209
REMARK   90  A    between atoms: _209  and  _210
REMARK   91  A    between atoms: _210  and  MG_430
REMARK   92  A    between atoms: _212  and  _214
REMARK   93  A    between atoms: _214  and  _215
REMARK   94  A    between atoms: _214  and  _217
REMARK   95  A    between atoms: _217  and  _218
REMARK   96  A    between atoms: _218  and  _219
REMARK   97  A    between atoms: _222  and  _224
REMARK   98  A    between atoms: _224  and  _225
REMARK   99  A    between atoms: _224  and  _227
REMARK  100  A    between atoms: _227  and  _228
REMARK  101  A    between atoms: _228  and  _229
REMARK  102  A    between atoms: _231  and  _233
REMARK  103  A    between atoms: _233  and  _234
REMARK  104  A    between atoms: _233  and  _236
REMARK  105  A    between atoms: _236  and  _237
REMARK  106  A    between atoms: _242  and  _243
REMARK  107  A    between atoms: _245  and  _247
REMARK  108  A    between atoms: _247  and  _248
REMARK  109  A    between atoms: _247  and  _250
REMARK  110  A    between atoms: _250  and  _251
REMARK  111  A    between atoms: _251  and  _252
REMARK  112  A    between atoms: _252  and  _253
REMARK  113  A    between atoms: _253  and  _254
REMARK  114  A    between atoms: _258  and  _260
REMARK  115  A    between atoms: _260  and  _261
REMARK  116  A    between atoms: _260  and  _263
REMARK  117  A    between atoms: _265  and  _267
REMARK  118  A    between atoms: _267  and  _268
REMARK  119  A    between atoms: _267  and  _270
REMARK  120  A    between atoms: _270  and  _271
REMARK  121  A    between atoms: _271  and  _272
REMARK  122  A    between atoms: _275  and  _277
REMARK  123  A    between atoms: _277  and  _278
REMARK  124  A    between atoms: _277  and  _280
REMARK  125  A    between atoms: _280  and  _281
REMARK  126  A    between atoms: _286  and  _288
REMARK  127  A    between atoms: _288  and  _289
REMARK  128  A    between atoms: _292  and  _294
REMARK  129  A    between atoms: _294  and  _295
REMARK  130  A    between atoms: _294  and  _297
REMARK  131  A    between atoms: _297  and  _298
REMARK  132  A    between atoms: _298  and  _299
REMARK  133  A    between atoms: _301  and  _303
REMARK  134  A    between atoms: _303  and  _304
REMARK  135  A    between atoms: _303  and  _306
REMARK  136  A    between atoms: _306  and  _307
REMARK  137  A    between atoms: _317  and  _319
REMARK  138  A    between atoms: _319  and  _320
REMARK  139  A    between atoms: _319  and  _322
REMARK  140  A    between atoms: _322  and  _323
REMARK  141  A    between atoms: _326  and  _328
REMARK  142  A    between atoms: _328  and  _329
REMARK  143  A    between atoms: _328  and  _331
REMARK  144  A    between atoms: _331  and  _332
REMARK  145  A    between atoms: _332  and  _333
REMARK  146  A    between atoms: _338  and  _340
REMARK  147  A    between atoms: _340  and  _341
REMARK  148  A    between atoms: _340  and  _343
REMARK  149  A    between atoms: _343  and  _344
REMARK  150  A    between atoms: _344  and  _345
REMARK  151  A    between atoms: _350  and  _352
REMARK  152  A    between atoms: _352  and  _353
REMARK  153  A    between atoms: _352  and  _355
REMARK  154  A    between atoms: _355  and  _356
REMARK  155  A    between atoms: _362  and  _364
REMARK  156  A    between atoms: _364  and  _365
REMARK  157  A    between atoms: _364  and  _367
REMARK  158  A    between atoms: _369  and  _371
REMARK  159  A    between atoms: _371  and  _372
REMARK  160  A    between atoms: _371  and  _374
REMARK  161  A    between atoms: _374  and  _375
REMARK  162  A    between atoms: _375  and  _376
REMARK  163  A    between atoms: _378  and  _380
REMARK  164  A    between atoms: _380  and  _381
REMARK  165  A    between atoms: _380  and  _383
REMARK  166  A    between atoms: _383  and  _384
REMARK  167  A    between atoms: _384  and  _385
REMARK  168  A    between atoms: _384  and  _386
REMARK  169  A    between atoms: _389  and  _391
REMARK  170  A    between atoms: _391  and  _392
REMARK  171  A    between atoms: _391  and  _394
REMARK  172  A    between atoms: _394  and  _395
REMARK  173  A    between atoms: _397  and  _399
REMARK  174  A    between atoms: _399  and  _400
REMARK  175  A    between atoms: _399  and  _402
REMARK  176  A    between atoms: _402  and  _403
REMARK  177  A    between atoms: _406  and  _408
REMARK  178  A    between atoms: _408  and  _409
REMARK  179  A    between atoms: _408  and  _411
REMARK  180  A    between atoms: _411  and  _412
REMARK  181  A    between atoms: _414  and  _416
REMARK  182  A    between atoms: _416  and  _417
REMARK  183  A    between atoms: _416  and  _419
REMARK  184  A    between atoms: _419  and  _420
REMARK                            x       y       z     vdW  Elec       q    Type
REMARK                         _______ _______ _______ _____ _____    ______ ____
ROOT
ATOM      1  C   CYS A   1      -5.382 -21.269 -25.296  0.00  0.00    +0.239 C 
ATOM      2  N   GLU A   2      -6.587 -20.874 -25.718  0.00  0.00    -0.298 N 
ATOM      3  H   GLU A   2      -7.092 -20.160 -25.155  0.00  0.00    +0.150 HD
ATOM      4  O   CYS A   1      -4.737 -22.171 -25.820  0.00  0.00    -0.274 OA
ENDROOT
BRANCH   1   5
ATOM      5  CA  CYS A   1      -4.804 -20.500 -24.103  0.00  0.00    +0.156 C 
BRANCH   5   6
ATOM      6  N   CYS A   1      -5.443 -19.191 -23.986  0.00  0.00    -0.237 NA
ATOM      7  H   CYS A   1      -6.163 -19.024 -23.255  0.00  0.00    +0.142 HD
ENDBRANCH   5   6
BRANCH   5   8
ATOM      8  CB  CYS A   1      -4.869 -21.297 -22.792  0.00  0.00    +0.095 C 
ATOM      9  SG  CYS A   1      -6.488 -21.959 -22.354  0.00  0.00    -0.080 S 
ENDBRANCH   5   8
ENDBRANCH   1   5
BRANCH   2  10
ATOM     10  CA  GLU A   2      -7.239 -21.387 -26.926  0.00  0.00    +0.137 C 
BRANCH  10  11
ATOM     11  C   GLU A   2      -8.104 -20.307 -27.581  0.00  0.00    +0.227 C 
ATOM     12  O   GLU A   2      -8.874 -19.633 -26.905  0.00  0.00    -0.286 OA
ENDBRANCH  10  11
BRANCH  10  13
ATOM     13  CB  GLU A   2      -8.092 -22.619 -26.603  0.00  0.00    +0.039 C 
BRANCH  13  14
ATOM     14  CG  GLU A   2      -7.267 -23.796 -26.086  0.00  0.00    +0.116 C 
BRANCH  14  15
ATOM     15  CD  GLU A   2      -8.085 -25.013 -25.742  0.00  0.00    +0.365 C 
ATOM     16  OE2 GLU A   2      -7.641 -25.795 -24.868  0.00  0.00    -0.246 OA
ATOM     17  OE1 GLU A   2      -9.150 -25.206 -26.363  0.00  0.00    -0.246 OA
ENDBRANCH  14  15
ENDBRANCH  13  14
ENDBRANCH  10  13
ENDBRANCH   2  10
TORSDOF 8
REMARK  Name = ../refined-set-2016/3vdb/3vdb_pocket.pdb
REMARK  184 active torsions:
REMARK  status: ('A' for Active; 'I' for Inactive)
REMARK    1  A    between atoms: _1  and  _3
REMARK    2  A    between atoms: _3  and  _4
REMARK    3  A    between atoms: _3  and  _6
REMARK    4  A    between atoms: _6  and  _7
REMARK    5  A    between atoms: _12  and  _13
REMARK    6  A    between atoms: _15  and  _17
REMARK    7  A    between atoms: _17  and  _18
REMARK    8  A    between atoms: _17  and  _20
REMARK    9  A    between atoms: _20  and  _21
REMARK   10  A    between atoms: _24  and  _26
REMARK   11  A    between atoms: _26  and  _27
REMARK   12  A    between atoms: _26  and  _29
REMARK   13  A    between atoms: _29  and  _30
REMARK   14  A    between atoms: _35  and  _37
REMARK   15  A    between atoms: _37  and  _38
REMARK   16  A    between atoms: _37  and  _40
REMARK   17  A    between atoms: _43  and  _45
REMARK   18  A    between atoms: _45  and  _46
REMARK   19  A    between atoms: _45  and  _48
REMARK   20  A    between atoms: _48  and  _49
REMARK   21  A    between atoms: _52  and  _54
REMARK   22  A    between atoms: _54  and  _55
REMARK   23  A    between atoms: _54  and  _57
REMARK   24  A    between atoms: _57  and  _58
REMARK   25  A    between atoms: _58  and  _59
REMARK   26  A    between atoms: _64  and  _66
REMARK   27  A    between atoms: _66  and  _67
REMARK   28  A    between atoms: _66  and  _69
REMARK   29  A    between atoms: _69  and  _70
REMARK   30  A    between atoms: _73  and  _75
REMARK   31  A    between atoms: _75  and  _76
REMARK   32  A    between atoms: _75  and  _78
REMARK   33  A    between atoms: _78  and  _79
REMARK   34  A    between atoms: _79  and  _80
REMARK   35  A    between atoms: _82  and  _84
REMARK   36  A    between atoms: _84  and  _85
REMARK   37  A    between atoms: _84  and  _87
REMARK   38  A    between atoms: _87  and  _88
REMARK   39  A    between atoms: _88  and  _89
REMARK   40  A    between atoms: _89  and  _90
REMARK   41  A    between atoms: _99  and  _101
REMARK   42  A    between atoms: _101  and  _102
REMARK   43  A    between atoms: _101  and  _104
REMARK   44  A    between atoms: _104  and  _105
REMARK   45  A    between atoms: _110  and  _112
REMARK   46  A    between atoms: _112  and  _113
REMARK   47  A    between atoms: _112  and  _115
REMARK   48  A    between atoms: _115  and  _116
REMARK   49  A    between atoms: _121  and  _123
REMARK   50  A    between atoms: _123  and  _124
REMARK   51  A    between atoms: _123  and  _126
REMARK   52  A    between atoms: _126  and  _127
REMARK   53  A    between atoms: _127  and  _128
REMARK   54  A    between atoms: _128  and  _129
REMARK   55  A    between atoms: _138  and  _140
REMARK   56  A    between atoms: _140  and  _141
REMARK   57  A    between atoms: _140  and  _143
REMARK   58  A    between atoms: _143  and  _144
REMARK   59  A    between atoms: _146  and  _148
REMARK   60  A    between atoms: _148  and  _149
REMARK   61  A    between atoms: _148  and  _151
REMARK   62  A    between atoms: _151  and  _152
REMARK   63  A    between atoms: _157  and  _159
REMARK   64  A    between atoms: _159  and  _160
REMARK   65  A    between atoms: _159  and  _162
REMARK   66  A    between atoms: _162  and  _163
REMARK   67  A    between atoms: _163  and  _164
REMARK   68  A    between atoms: _167  and  _169
REMARK   69  A    between atoms: _169  and  _170
REMARK   70  A    between atoms: _169  and  _172
REMARK   71  A    between atoms: _172  and  _173
REMARK   72  A    between atoms: _173  and  _174
REMARK   73  A    between atoms: _174  and  _176
REMARK   74  A    between atoms: _176  and  MG_430
REMARK   75  A    between atoms: _177  and  _179
REMARK   76  A    between atoms: _179  and  _180
REMARK   77  A    between atoms: _179  and  _182
REMARK   78  A    between atoms: _182  and  _183
REMARK   79  A    between atoms: _188  and  _190
REMARK   80  A    between atoms: _190  and  _191
REMARK   81  A    between atoms: _193  and  _195
REMARK   82  A    between atoms: _195  and  _196
REMARK   83  A    between atoms: _195  and  _198
REMARK   84  A    between atoms: _198  and  _199
REMARK   85  A    between atoms: _202  and  _204
REMARK   86  A    between atoms: _204  and  _205
REMARK   87  A    between atoms: _204  and  _207
REMARK   88  A    between atoms: _207  and  _208
REMARK   89  A    between atoms: _208  and  _209
REMARK   90  A    between atoms: _209  and  _210
REMARK   91  A    between atoms: _210  and  MG_430
REMARK   92  A    between atoms: _212  and  _214
REMARK   93  A    between atoms: _214  and  _215
REMARK   94  A    between atoms: _214  and  _217
REMARK   95  A    between atoms: _217  and  _218
REMARK   96  A    between atoms: _218  and  _219
REMARK   97  A    between atoms: _222  and  _224
REMARK   98  A    between atoms: _224  and  _225
REMARK   99  A    between atoms: _224  and  _227
REMARK  100  A    between atoms: _227  and  _228
REMARK  101  A    between atoms: _228  and  _229
REMARK  102  A    between atoms: _231  and  _233
REMARK  103  A    between atoms: _233  and  _234
REMARK  104  A    between atoms: _233  and  _236
REMARK  105  A    between atoms: _236  and  _237
REMARK  106  A    between atoms: _242  and  _243
REMARK  107  A    between atoms: _245  and  _247
REMARK  108  A    between atoms: _247  and  _248
REMARK  109  A    between atoms: _247  and  _250
REMARK  110  A    between atoms: _250  and  _251
REMARK  111  A    between atoms: _251  and  _252
REMARK  112  A    between atoms: _252  and  _253
REMARK  113  A    between atoms: _253  and  _254
REMARK  114  A    between atoms: _258  and  _260
REMARK  115  A    between atoms: _260  and  _261
REMARK  116  A    between atoms: _260  and  _263
REMARK  117  A    between atoms: _265  and  _267
REMARK  118  A    between atoms: _267  and  _268
REMARK  119  A    between atoms: _267  and  _270
REMARK  120  A    between atoms: _270  and  _271
REMARK  121  A    between atoms: _271  and  _272
REMARK  122  A    between atoms: _275  and  _277
REMARK  123  A    between atoms: _277  and  _278
REMARK  124  A    between atoms: _277  and  _280
REMARK  125  A    between atoms: _280  and  _281
REMARK  126  A    between atoms: _286  and  _288
REMARK  127  A    between atoms: _288  and  _289
REMARK  128  A    between atoms: _292  and  _294
REMARK  129  A    between atoms: _294  and  _295
REMARK  130  A    between atoms: _294  and  _297
REMARK  131  A    between atoms: _297  and  _298
REMARK  132  A    between atoms: _298  and  _299
REMARK  133  A    between atoms: _301  and  _303
REMARK  134  A    between atoms: _303  and  _304
REMARK  135  A    between atoms: _303  and  _306
REMARK  136  A    between atoms: _306  and  _307
REMARK  137  A    between atoms: _317  and  _319
REMARK  138  A    between atoms: _319  and  _320
REMARK  139  A    between atoms: _319  and  _322
REMARK  140  A    between atoms: _322  and  _323
REMARK  141  A    between atoms: _326  and  _328
REMARK  142  A    between atoms: _328  and  _329
REMARK  143  A    between atoms: _328  and  _331
REMARK  144  A    between atoms: _331  and  _332
REMARK  145  A    between atoms: _332  and  _333
REMARK  146  A    between atoms: _338  and  _340
REMARK  147  A    between atoms: _340  and  _341
REMARK  148  A    between atoms: _340  and  _343
REMARK  149  A    between atoms: _343  and  _344
REMARK  150  A    between atoms: _344  and  _345
REMARK  151  A    between atoms: _350  and  _352
REMARK  152  A    between atoms: _352  and  _353
REMARK  153  A    between atoms: _352  and  _355
REMARK  154  A    between atoms: _355  and  _356
REMARK  155  A    between atoms: _362  and  _364
REMARK  156  A    between atoms: _364  and  _365
REMARK  157  A    between atoms: _364  and  _367
REMARK  158  A    between atoms: _369  and  _371
REMARK  159  A    between atoms: _371  and  _372
REMARK  160  A    between atoms: _371  and  _374
REMARK  161  A    between atoms: _374  and  _375
REMARK  162  A    between atoms: _375  and  _376
REMARK  163  A    between atoms: _378  and  _380
REMARK  164  A    between atoms: _380  and  _381
REMARK  165  A    between atoms: _380  and  _383
REMARK  166  A    between atoms: _383  and  _384
REMARK  167  A    between atoms: _384  and  _385
REMARK  168  A    between atoms: _384  and  _386
REMARK  169  A    between atoms: _389  and  _391
REMARK  170  A    between atoms: _391  and  _392
REMARK  171  A    between atoms: _391  and  _394
REMARK  172  A    between atoms: _394  and  _395
REMARK  173  A    between atoms: _397  and  _399
REMARK  174  A    between atoms: _399  and  _400
REMARK  175  A    between atoms: _399  and  _402
REMARK  176  A    between atoms: _402  and  _403
REMARK  177  A    between atoms: _406  and  _408
REMARK  178  A    between atoms: _408  and  _409
REMARK  179  A    between atoms: _408  and  _411
REMARK  180  A    between atoms: _411  and  _412
REMARK  181  A    between atoms: _414  and  _416
REMARK  182  A    between atoms: _416  and  _417
REMARK  183  A    between atoms: _416  and  _419
REMARK  184  A    between atoms: _419  and  _420
REMARK                            x       y       z     vdW  Elec       q    Type
REMARK                         _______ _______ _______ _____ _____    ______ ____
ROOT
ATOM      1  C   HIS A   1     -11.138 -23.146 -34.959  0.00  0.00    +0.239 C 
ATOM      2  N   ALA A   2     -10.076 -23.814 -35.411  0.00  0.00    -0.297 N 
ATOM      3  H   ALA A   2      -9.426 -24.238 -34.719  0.00  0.00    +0.150 HD
ATOM      4  O   HIS A   1     -12.072 -22.787 -35.678  0.00  0.00    -0.274 OA
ENDROOT
BRANCH   2   5
ATOM      5  CA  ALA A   2      -9.781 -23.979 -36.842  0.00  0.00    +0.149 C 
ATOM      6  CB  ALA A   2      -8.273 -23.929 -37.076  0.00  0.00    +0.031 C 
BRANCH   5   7
ATOM      7  C   ALA A   2     -10.374 -25.246 -37.455  0.00  0.00    +0.241 C 
ATOM      8  N   MET A   3     -11.609 -25.545 -37.079  0.00  0.00    -0.298 N 
ATOM      9  H   MET A   3     -12.112 -24.885 -36.452  0.00  0.00    +0.150 HD
ATOM     10  O   ALA A   2      -9.731 -25.923 -38.260  0.00  0.00    -0.273 OA
BRANCH   8  11
ATOM     11  CA  MET A   3     -12.290 -26.757 -37.506  0.00  0.00    +0.138 C 
BRANCH  11  12
ATOM     12  C   MET A   3     -12.917 -26.603 -38.888  0.00  0.00    +0.227 C 
ATOM     13  O   MET A   3     -13.864 -25.837 -39.067  0.00  0.00    -0.286 OA
ENDBRANCH  11  12
BRANCH  11  14
ATOM     14  CB  MET A   3     -13.365 -27.117 -36.484  0.00  0.00    +0.039 C 
BRANCH  14  15
ATOM     15  CG  MET A   3     -14.193 -28.313 -36.865  0.00  0.00    +0.060 C 
BRANCH  15  16
ATOM     16  SD  MET A   3     -15.405 -28.646 -35.600  0.00  0.00    -0.139 S 
ATOM     17  CE  MET A   3     -15.953 -30.273 -36.121  0.00  0.00    +0.069 C 
ENDBRANCH  15  16
ENDBRANCH  14  15
ENDBRANCH  11  14
ENDBRANCH   8  11
ENDBRANCH   5   7
ENDBRANCH   2   5
BRANCH   1  18
ATOM     18  CA  HIS A   1     -11.141 -22.822 -33.464  0.00  0.00    +0.151 C 
BRANCH  18  19
ATOM     19  N   HIS A   1     -10.964 -21.389 -33.272  0.00  0.00    -0.238 NA
ATOM     20  H   HIS A   1     -11.725 -20.856 -32.804  0.00  0.00    +0.142 HD
ENDBRANCH  18  19
BRANCH  18  21
ATOM     21  CB  HIS A   1     -12.449 -23.259 -32.801  0.00  0.00    +0.074 C 
BRANCH  21  22
ATOM     22  CG  HIS A   1     -12.546 -24.732 -32.564  0.00  0.00    +0.082 A 
ATOM     23  CD2 HIS A   1     -11.951 -25.530 -31.647  0.00  0.00    +0.115 A 
ATOM     24  NE2 HIS A   1     -12.402 -26.808 -31.868  0.00  0.00    -0.221 NA
ATOM     25  CE1 HIS A   1     -13.254 -26.794 -32.877  0.00  0.00    +0.199 A 
ATOM     26  ND1 HIS A   1     -13.355 -25.554 -33.319  0.00  0.00    -0.227 NA
ENDBRANCH  21  22
ENDBRANCH  18  21
ENDBRANCH   1  18
TORSDOF 11
REMARK  Name = ../refined-set-2016/3vdb/3vdb_pocket.pdb
REMARK  184 active torsions:
REMARK  status: ('A' for Active; 'I' for Inactive)
REMARK    1  A    between atoms: _1  and  _3
REMARK    2  A    between atoms: _3  and  _4
REMARK    3  A    between atoms: _3  and  _6
REMARK    4  A    between atoms: _6  and  _7
REMARK    5  A    between atoms: _12  and  _13
REMARK    6  A    between atoms: _15  and  _17
REMARK    7  A    between atoms: _17  and  _18
REMARK    8  A    between atoms: _17  and  _20
REMARK    9  A    between atoms: _20  and  _21
REMARK   10  A    between atoms: _24  and  _26
REMARK   11  A    between atoms: _26  and  _27
REMARK   12  A    between atoms: _26  and  _29
REMARK   13  A    between atoms: _29  and  _30
REMARK   14  A    between atoms: _35  and  _37
REMARK   15  A    between atoms: _37  and  _38
REMARK   16  A    between atoms: _37  and  _40
REMARK   17  A    between atoms: _43  and  _45
REMARK   18  A    between atoms: _45  and  _46
REMARK   19  A    between atoms: _45  and  _48
REMARK   20  A    between atoms: _48  and  _49
REMARK   21  A    between atoms: _52  and  _54
REMARK   22  A    between atoms: _54  and  _55
REMARK   23  A    between atoms: _54  and  _57
REMARK   24  A    between atoms: _57  and  _58
REMARK   25  A    between atoms: _58  and  _59
REMARK   26  A    between atoms: _64  and  _66
REMARK   27  A    between atoms: _66  and  _67
REMARK   28  A    between atoms: _66  and  _69
REMARK   29  A    between atoms: _69  and  _70
REMARK   30  A    between atoms: _73  and  _75
REMARK   31  A    between atoms: _75  and  _76
REMARK   32  A    between atoms: _75  and  _78
REMARK   33  A    between atoms: _78  and  _79
REMARK   34  A    between atoms: _79  and  _80
REMARK   35  A    between atoms: _82  and  _84
REMARK   36  A    between atoms: _84  and  _85
REMARK   37  A    between atoms: _84  and  _87
REMARK   38  A    between atoms: _87  and  _88
REMARK   39  A    between atoms: _88  and  _89
REMARK   40  A    between atoms: _89  and  _90
REMARK   41  A    between atoms: _99  and  _101
REMARK   42  A    between atoms: _101  and  _102
REMARK   43  A    between atoms: _101  and  _104
REMARK   44  A    between atoms: _104  and  _105
REMARK   45  A    between atoms: _110  and  _112
REMARK   46  A    between atoms: _112  and  _113
REMARK   47  A    between atoms: _112  and  _115
REMARK   48  A    between atoms: _115  and  _116
REMARK   49  A    between atoms: _121  and  _123
REMARK   50  A    between atoms: _123  and  _124
REMARK   51  A    between atoms: _123  and  _126
REMARK   52  A    between atoms: _126  and  _127
REMARK   53  A    between atoms: _127  and  _128
REMARK   54  A    between atoms: _128  and  _129
REMARK   55  A    between atoms: _138  and  _140
REMARK   56  A    between atoms: _140  and  _141
REMARK   57  A    between atoms: _140  and  _143
REMARK   58  A    between atoms: _143  and  _144
REMARK   59  A    between atoms: _146  and  _148
REMARK   60  A    between atoms: _148  and  _149
REMARK   61  A    between atoms: _148  and  _151
REMARK   62  A    between atoms: _151  and  _152
REMARK   63  A    between atoms: _157  and  _159
REMARK   64  A    between atoms: _159  and  _160
REMARK   65  A    between atoms: _159  and  _162
REMARK   66  A    between atoms: _162  and  _163
REMARK   67  A    between atoms: _163  and  _164
REMARK   68  A    between atoms: _167  and  _169
REMARK   69  A    between atoms: _169  and  _170
REMARK   70  A    between atoms: _169  and  _172
REMARK   71  A    between atoms: _172  and  _173
REMARK   72  A    between atoms: _173  and  _174
REMARK   73  A    between atoms: _174  and  _176
REMARK   74  A    between atoms: _176  and  MG_430
REMARK   75  A    between atoms: _177  and  _179
REMARK   76  A    between atoms: _179  and  _180
REMARK   77  A    between atoms: _179  and  _182
REMARK   78  A    between atoms: _182  and  _183
REMARK   79  A    between atoms: _188  and  _190
REMARK   80  A    between atoms: _190  and  _191
REMARK   81  A    between atoms: _193  and  _195
REMARK   82  A    between atoms: _195  and  _196
REMARK   83  A    between atoms: _195  and  _198
REMARK   84  A    between atoms: _198  and  _199
REMARK   85  A    between atoms: _202  and  _204
REMARK   86  A    between atoms: _204  and  _205
REMARK   87  A    between atoms: _204  and  _207
REMARK   88  A    between atoms: _207  and  _208
REMARK   89  A    between atoms: _208  and  _209
REMARK   90  A    between atoms: _209  and  _210
REMARK   91  A    between atoms: _210  and  MG_430
REMARK   92  A    between atoms: _212  and  _214
REMARK   93  A    between atoms: _214  and  _215
REMARK   94  A    between atoms: _214  and  _217
REMARK   95  A    between atoms: _217  and  _218
REMARK   96  A    between atoms: _218  and  _219
REMARK   97  A    between atoms: _222  and  _224
REMARK   98  A    between atoms: _224  and  _225
REMARK   99  A    between atoms: _224  and  _227
REMARK  100  A    between atoms: _227  and  _228
REMARK  101  A    between atoms: _228  and  _229
REMARK  102  A    between atoms: _231  and  _233
REMARK  103  A    between atoms: _233  and  _234
REMARK  104  A    between atoms: _233  and  _236
REMARK  105  A    between atoms: _236  and  _237
REMARK  106  A    between atoms: _242  and  _243
REMARK  107  A    between atoms: _245  and  _247
REMARK  108  A    between atoms: _247  and  _248
REMARK  109  A    between atoms: _247  and  _250
REMARK  110  A    between atoms: _250  and  _251
REMARK  111  A    between atoms: _251  and  _252
REMARK  112  A    between atoms: _252  and  _253
REMARK  113  A    between atoms: _253  and  _254
REMARK  114  A    between atoms: _258  and  _260
REMARK  115  A    between atoms: _260  and  _261
REMARK  116  A    between atoms: _260  and  _263
REMARK  117  A    between atoms: _265  and  _267
REMARK  118  A    between atoms: _267  and  _268
REMARK  119  A    between atoms: _267  and  _270
REMARK  120  A    between atoms: _270  and  _271
REMARK  121  A    between atoms: _271  and  _272
REMARK  122  A    between atoms: _275  and  _277
REMARK  123  A    between atoms: _277  and  _278
REMARK  124  A    between atoms: _277  and  _280
REMARK  125  A    between atoms: _280  and  _281
REMARK  126  A    between atoms: _286  and  _288
REMARK  127  A    between atoms: _288  and  _289
REMARK  128  A    between atoms: _292  and  _294
REMARK  129  A    between atoms: _294  and  _295
REMARK  130  A    between atoms: _294  and  _297
REMARK  131  A    between atoms: _297  and  _298
REMARK  132  A    between atoms: _298  and  _299
REMARK  133  A    between atoms: _301  and  _303
REMARK  134  A    between atoms: _303  and  _304
REMARK  135  A    between atoms: _303  and  _306
REMARK  136  A    between atoms: _306  and  _307
REMARK  137  A    between atoms: _317  and  _319
REMARK  138  A    between atoms: _319  and  _320
REMARK  139  A    between atoms: _319  and  _322
REMARK  140  A    between atoms: _322  and  _323
REMARK  141  A    between atoms: _326  and  _328
REMARK  142  A    between atoms: _328  and  _329
REMARK  143  A    between atoms: _328  and  _331
REMARK  144  A    between atoms: _331  and  _332
REMARK  145  A    between atoms: _332  and  _333
REMARK  146  A    between atoms: _338  and  _340
REMARK  147  A    between atoms: _340  and  _341
REMARK  148  A    between atoms: _340  and  _343
REMARK  149  A    between atoms: _343  and  _344
REMARK  150  A    between atoms: _344  and  _345
REMARK  151  A    between atoms: _350  and  _352
REMARK  152  A    between atoms: _352  and  _353
REMARK  153  A    between atoms: _352  and  _355
REMARK  154  A    between atoms: _355  and  _356
REMARK  155  A    between atoms: _362  and  _364
REMARK  156  A    between atoms: _364  and  _365
REMARK  157  A    between atoms: _364  and  _367
REMARK  158  A    between atoms: _369  and  _371
REMARK  159  A    between atoms: _371  and  _372
REMARK  160  A    between atoms: _371  and  _374
REMARK  161  A    between atoms: _374  and  _375
REMARK  162  A    between atoms: _375  and  _376
REMARK  163  A    between atoms: _378  and  _380
REMARK  164  A    between atoms: _380  and  _381
REMARK  165  A    between atoms: _380  and  _383
REMARK  166  A    between atoms: _383  and  _384
REMARK  167  A    between atoms: _384  and  _385
REMARK  168  A    between atoms: _384  and  _386
REMARK  169  A    between atoms: _389  and  _391
REMARK  170  A    between atoms: _391  and  _392
REMARK  171  A    between atoms: _391  and  _394
REMARK  172  A    between atoms: _394  and  _395
REMARK  173  A    between atoms: _397  and  _399
REMARK  174  A    between atoms: _399  and  _400
REMARK  175  A    between atoms: _399  and  _402
REMARK  176  A    between atoms: _402  and  _403
REMARK  177  A    between atoms: _406  and  _408
REMARK  178  A    between atoms: _408  and  _409
REMARK  179  A    between atoms: _408  and  _411
REMARK  180  A    between atoms: _411  and  _412
REMARK  181  A    between atoms: _414  and  _416
REMARK  182  A    between atoms: _416  and  _417
REMARK  183  A    between atoms: _416  and  _419
REMARK  184  A    between atoms: _419  and  _420
REMARK                            x       y       z     vdW  Elec       q    Type
REMARK                         _______ _______ _______ _____ _____    ______ ____
ROOT
ATOM      1  CA  TRP A   1      -6.815 -24.415 -31.564  0.00  0.00    +0.149 C 
ENDROOT
BRANCH   1   2
ATOM      2  C   TRP A   1      -7.257 -24.909 -32.943  0.00  0.00    +0.239 C 
ATOM      3  O   TRP A   1      -8.299 -24.485 -33.434  0.00  0.00    -0.274 OA
ATOM      4  N   ASP A   2      -6.477 -25.790 -33.576  0.00  0.00    -0.298 N 
ATOM      5  H   ASP A   2      -6.830 -26.208 -34.460  0.00  0.00    +0.150 HD
BRANCH   4   6
ATOM      6  CA  ASP A   2      -5.153 -26.203 -33.100  0.00  0.00    +0.148 C 
BRANCH   6   7
ATOM      7  C   ASP A   2      -4.246 -26.491 -34.291  0.00  0.00    +0.227 C 
ATOM      8  O   ASP A   2      -4.554 -26.076 -35.415  0.00  0.00    -0.286 OA
ENDBRANCH   6   7
BRANCH   6   9
ATOM      9  CB  ASP A   2      -5.231 -27.379 -32.105  0.00  0.00    +0.142 C 
BRANCH   9  10
ATOM     10  CG  ASP A   2      -5.767 -28.672 -32.718  0.00  0.00    +0.367 C 
ATOM     11  OD2 ASP A   2      -5.701 -29.704 -32.012  0.00  0.00    -0.246 OA
ATOM     12  OD1 ASP A   2      -6.248 -28.679 -33.874  0.00  0.00    -0.246 OA
ENDBRANCH   9  10
ENDBRANCH   6   9
ENDBRANCH   4   6
ENDBRANCH   1   2
BRANCH   1  13
ATOM     13  N   TRP A   1      -6.401 -23.019 -31.616  0.00  0.00    -0.238 NA
ATOM     14  H   TRP A   1      -7.127 -22.280 -31.712  0.00  0.00    +0.142 HD
ENDBRANCH   1  13
BRANCH   1  15
ATOM     15  CB  TRP A   1      -7.950 -24.664 -30.558  0.00  0.00    +0.054 C 
BRANCH  15  16
ATOM     16  CG  TRP A   1      -8.113 -26.139 -30.385  0.00  0.00    -0.002 A 
ATOM     17  CD2 TRP A   1      -7.439 -26.963 -29.427  0.00  0.00    +0.013 A 
ATOM     18  CE3 TRP A   1      -6.557 -26.699 -28.371  0.00  0.00    +0.001 A 
ATOM     19  CZ3 TRP A   1      -6.097 -27.763 -27.604  0.00  0.00    +0.000 A 
ATOM     20  CH2 TRP A   1      -6.507 -29.083 -27.876  0.00  0.00    +0.001 A 
ATOM     21  CZ2 TRP A   1      -7.374 -29.367 -28.903  0.00  0.00    +0.017 A 
ATOM     22  CE2 TRP A   1      -7.839 -28.296 -29.669  0.00  0.00    +0.056 A 
ATOM     23  NE1 TRP A   1      -8.693 -28.281 -30.743  0.00  0.00    -0.352 N 
ATOM     24  HE1 TRP A   1      -9.149 -29.115 -31.164  0.00  0.00    +0.166 HD
ATOM     25  CD1 TRP A   1      -8.847 -26.987 -31.171  0.00  0.00    +0.068 A 
ENDBRANCH  15  16
ENDBRANCH   1  15
TORSDOF 8
REMARK  Name = ../refined-set-2016/3vdb/3vdb_pocket.pdb
REMARK  184 active torsions:
REMARK  status: ('A' for Active; 'I' for Inactive)
REMARK    1  A    between atoms: _1  and  _3
REMARK    2  A    between atoms: _3  and  _4
REMARK    3  A    between atoms: _3  and  _6
REMARK    4  A    between atoms: _6  and  _7
REMARK    5  A    between atoms: _12  and  _13
REMARK    6  A    between atoms: _15  and  _17
REMARK    7  A    between atoms: _17  and  _18
REMARK    8  A    between atoms: _17  and  _20
REMARK    9  A    between atoms: _20  and  _21
REMARK   10  A    between atoms: _24  and  _26
REMARK   11  A    between atoms: _26  and  _27
REMARK   12  A    between atoms: _26  and  _29
REMARK   13  A    between atoms: _29  and  _30
REMARK   14  A    between atoms: _35  and  _37
REMARK   15  A    between atoms: _37  and  _38
REMARK   16  A    between atoms: _37  and  _40
REMARK   17  A    between atoms: _43  and  _45
REMARK   18  A    between atoms: _45  and  _46
REMARK   19  A    between atoms: _45  and  _48
REMARK   20  A    between atoms: _48  and  _49
REMARK   21  A    between atoms: _52  and  _54
REMARK   22  A    between atoms: _54  and  _55
REMARK   23  A    between atoms: _54  and  _57
REMARK   24  A    between atoms: _57  and  _58
REMARK   25  A    between atoms: _58  and  _59
REMARK   26  A    between atoms: _64  and  _66
REMARK   27  A    between atoms: _66  and  _67
REMARK   28  A    between atoms: _66  and  _69
REMARK   29  A    between atoms: _69  and  _70
REMARK   30  A    between atoms: _73  and  _75
REMARK   31  A    between atoms: _75  and  _76
REMARK   32  A    between atoms: _75  and  _78
REMARK   33  A    between atoms: _78  and  _79
REMARK   34  A    between atoms: _79  and  _80
REMARK   35  A    between atoms: _82  and  _84
REMARK   36  A    between atoms: _84  and  _85
REMARK   37  A    between atoms: _84  and  _87
REMARK   38  A    between atoms: _87  and  _88
REMARK   39  A    between atoms: _88  and  _89
REMARK   40  A    between atoms: _89  and  _90
REMARK   41  A    between atoms: _99  and  _101
REMARK   42  A    between atoms: _101  and  _102
REMARK   43  A    between atoms: _101  and  _104
REMARK   44  A    between atoms: _104  and  _105
REMARK   45  A    between atoms: _110  and  _112
REMARK   46  A    between atoms: _112  and  _113
REMARK   47  A    between atoms: _112  and  _115
REMARK   48  A    between atoms: _115  and  _116
REMARK   49  A    between atoms: _121  and  _123
REMARK   50  A    between atoms: _123  and  _124
REMARK   51  A    between atoms: _123  and  _126
REMARK   52  A    between atoms: _126  and  _127
REMARK   53  A    between atoms: _127  and  _128
REMARK   54  A    between atoms: _128  and  _129
REMARK   55  A    between atoms: _138  and  _140
REMARK   56  A    between atoms: _140  and  _141
REMARK   57  A    between atoms: _140  and  _143
REMARK   58  A    between atoms: _143  and  _144
REMARK   59  A    between atoms: _146  and  _148
REMARK   60  A    between atoms: _148  and  _149
REMARK   61  A    between atoms: _148  and  _151
REMARK   62  A    between atoms: _151  and  _152
REMARK   63  A    between atoms: _157  and  _159
REMARK   64  A    between atoms: _159  and  _160
REMARK   65  A    between atoms: _159  and  _162
REMARK   66  A    between atoms: _162  and  _163
REMARK   67  A    between atoms: _163  and  _164
REMARK   68  A    between atoms: _167  and  _169
REMARK   69  A    between atoms: _169  and  _170
REMARK   70  A    between atoms: _169  and  _172
REMARK   71  A    between atoms: _172  and  _173
REMARK   72  A    between atoms: _173  and  _174
REMARK   73  A    between atoms: _174  and  _176
REMARK   74  A    between atoms: _176  and  MG_430
REMARK   75  A    between atoms: _177  and  _179
REMARK   76  A    between atoms: _179  and  _180
REMARK   77  A    between atoms: _179  and  _182
REMARK   78  A    between atoms: _182  and  _183
REMARK   79  A    between atoms: _188  and  _190
REMARK   80  A    between atoms: _190  and  _191
REMARK   81  A    between atoms: _193  and  _195
REMARK   82  A    between atoms: _195  and  _196
REMARK   83  A    between atoms: _195  and  _198
REMARK   84  A    between atoms: _198  and  _199
REMARK   85  A    between atoms: _202  and  _204
REMARK   86  A    between atoms: _204  and  _205
REMARK   87  A    between atoms: _204  and  _207
REMARK   88  A    between atoms: _207  and  _208
REMARK   89  A    between atoms: _208  and  _209
REMARK   90  A    between atoms: _209  and  _210
REMARK   91  A    between atoms: _210  and  MG_430
REMARK   92  A    between atoms: _212  and  _214
REMARK   93  A    between atoms: _214  and  _215
REMARK   94  A    between atoms: _214  and  _217
REMARK   95  A    between atoms: _217  and  _218
REMARK   96  A    between atoms: _218  and  _219
REMARK   97  A    between atoms: _222  and  _224
REMARK   98  A    between atoms: _224  and  _225
REMARK   99  A    between atoms: _224  and  _227
REMARK  100  A    between atoms: _227  and  _228
REMARK  101  A    between atoms: _228  and  _229
REMARK  102  A    between atoms: _231  and  _233
REMARK  103  A    between atoms: _233  and  _234
REMARK  104  A    between atoms: _233  and  _236
REMARK  105  A    between atoms: _236  and  _237
REMARK  106  A    between atoms: _242  and  _243
REMARK  107  A    between atoms: _245  and  _247
REMARK  108  A    between atoms: _247  and  _248
REMARK  109  A    between atoms: _247  and  _250
REMARK  110  A    between atoms: _250  and  _251
REMARK  111  A    between atoms: _251  and  _252
REMARK  112  A    between atoms: _252  and  _253
REMARK  113  A    between atoms: _253  and  _254
REMARK  114  A    between atoms: _258  and  _260
REMARK  115  A    between atoms: _260  and  _261
REMARK  116  A    between atoms: _260  and  _263
REMARK  117  A    between atoms: _265  and  _267
REMARK  118  A    between atoms: _267  and  _268
REMARK  119  A    between atoms: _267  and  _270
REMARK  120  A    between atoms: _270  and  _271
REMARK  121  A    between atoms: _271  and  _272
REMARK  122  A    between atoms: _275  and  _277
REMARK  123  A    between atoms: _277  and  _278
REMARK  124  A    between atoms: _277  and  _280
REMARK  125  A    between atoms: _280  and  _281
REMARK  126  A    between atoms: _286  and  _288
REMARK  127  A    between atoms: _288  and  _289
REMARK  128  A    between atoms: _292  and  _294
REMARK  129  A    between atoms: _294  and  _295
REMARK  130  A    between atoms: _294  and  _297
REMARK  131  A    between atoms: _297  and  _298
REMARK  132  A    between atoms: _298  and  _299
REMARK  133  A    between atoms: _301  and  _303
REMARK  134  A    between atoms: _303  and  _304
REMARK  135  A    between atoms: _303  and  _306
REMARK  136  A    between atoms: _306  and  _307
REMARK  137  A    between atoms: _317  and  _319
REMARK  138  A    between atoms: _319  and  _320
REMARK  139  A    between atoms: _319  and  _322
REMARK  140  A    between atoms: _322  and  _323
REMARK  141  A    between atoms: _326  and  _328
REMARK  142  A    between atoms: _328  and  _329
REMARK  143  A    between atoms: _328  and  _331
REMARK  144  A    between atoms: _331  and  _332
REMARK  145  A    between atoms: _332  and  _333
REMARK  146  A    between atoms: _338  and  _340
REMARK  147  A    between atoms: _340  and  _341
REMARK  148  A    between atoms: _340  and  _343
REMARK  149  A    between atoms: _343  and  _344
REMARK  150  A    between atoms: _344  and  _345
REMARK  151  A    between atoms: _350  and  _352
REMARK  152  A    between atoms: _352  and  _353
REMARK  153  A    between atoms: _352  and  _355
REMARK  154  A    between atoms: _355  and  _356
REMARK  155  A    between atoms: _362  and  _364
REMARK  156  A    between atoms: _364  and  _365
REMARK  157  A    between atoms: _364  and  _367
REMARK  158  A    between atoms: _369  and  _371
REMARK  159  A    between atoms: _371  and  _372
REMARK  160  A    between atoms: _371  and  _374
REMARK  161  A    between atoms: _374  and  _375
REMARK  162  A    between atoms: _375  and  _376
REMARK  163  A    between atoms: _378  and  _380
REMARK  164  A    between atoms: _380  and  _381
REMARK  165  A    between atoms: _380  and  _383
REMARK  166  A    between atoms: _383  and  _384
REMARK  167  A    between atoms: _384  and  _385
REMARK  168  A    between atoms: _384  and  _386
REMARK  169  A    between atoms: _389  and  _391
REMARK  170  A    between atoms: _391  and  _392
REMARK  171  A    between atoms: _391  and  _394
REMARK  172  A    between atoms: _394  and  _395
REMARK  173  A    between atoms: _397  and  _399
REMARK  174  A    between atoms: _399  and  _400
REMARK  175  A    between atoms: _399  and  _402
REMARK  176  A    between atoms: _402  and  _403
REMARK  177  A    between atoms: _406  and  _408
REMARK  178  A    between atoms: _408  and  _409
REMARK  179  A    between atoms: _408  and  _411
REMARK  180  A    between atoms: _411  and  _412
REMARK  181  A    between atoms: _414  and  _416
REMARK  182  A    between atoms: _416  and  _417
REMARK  183  A    between atoms: _416  and  _419
REMARK  184  A    between atoms: _419  and  _420
REMARK                            x       y       z     vdW  Elec       q    Type
REMARK                         _______ _______ _______ _____ _____    ______ ____
ROOT
ATOM      1  CB  GLN A   1      -6.959 -35.778 -34.074  0.00  0.00    +0.035 C 
ENDROOT
BRANCH   1   2
ATOM      2  CA  GLN A   1      -6.503 -35.730 -35.536  0.00  0.00    +0.134 C 
BRANCH   2   3
ATOM      3  N   GLN A   1      -6.691 -34.397 -36.111  0.00  0.00    -0.239 NA
ATOM      4  H   GLN A   1      -7.475 -33.804 -35.773  0.00  0.00    +0.142 HD
ENDBRANCH   2   3
BRANCH   2   5
ATOM      5  C   GLN A   1      -7.251 -36.802 -36.349  0.00  0.00    +0.224 C 
ATOM      6  O   GLN A   1      -8.017 -37.594 -35.794  0.00  0.00    -0.287 OA
ENDBRANCH   2   5
ENDBRANCH   1   2
BRANCH   1   7
ATOM      7  CG  GLN A   1      -6.112 -35.004 -33.073  0.00  0.00    +0.087 C 
BRANCH   7   8
ATOM      8  CD  GLN A   1      -6.567 -35.261 -31.643  0.00  0.00    +0.219 C 
ATOM      9  NE2 GLN A   1      -6.925 -34.196 -30.931  0.00  0.00    -0.329 N 
ATOM     10 HE21 GLN A   1      -7.252 -34.312 -29.951  0.00  0.00    +0.145 HD
ATOM     11 HE22 GLN A   1      -6.877 -33.247 -31.355  0.00  0.00    +0.145 HD
ATOM     12  OE1 GLN A   1      -6.604 -36.408 -31.190  0.00  0.00    -0.275 OA
ENDBRANCH   7   8
ENDBRANCH   1   7
TORSDOF 5
REMARK  Name = ../refined-set-2016/3vdb/3vdb_pocket.pdb
REMARK  184 active torsions:
REMARK  status: ('A' for Active; 'I' for Inactive)
REMARK    1  A    between atoms: _1  and  _3
REMARK    2  A    between atoms: _3  and  _4
REMARK    3  A    between atoms: _3  and  _6
REMARK    4  A    between atoms: _6  and  _7
REMARK    5  A    between atoms: _12  and  _13
REMARK    6  A    between atoms: _15  and  _17
REMARK    7  A    between atoms: _17  and  _18
REMARK    8  A    between atoms: _17  and  _20
REMARK    9  A    between atoms: _20  and  _21
REMARK   10  A    between atoms: _24  and  _26
REMARK   11  A    between atoms: _26  and  _27
REMARK   12  A    between atoms: _26  and  _29
REMARK   13  A    between atoms: _29  and  _30
REMARK   14  A    between atoms: _35  and  _37
REMARK   15  A    between atoms: _37  and  _38
REMARK   16  A    between atoms: _37  and  _40
REMARK   17  A    between atoms: _43  and  _45
REMARK   18  A    between atoms: _45  and  _46
REMARK   19  A    between atoms: _45  and  _48
REMARK   20  A    between atoms: _48  and  _49
REMARK   21  A    between atoms: _52  and  _54
REMARK   22  A    between atoms: _54  and  _55
REMARK   23  A    between atoms: _54  and  _57
REMARK   24  A    between atoms: _57  and  _58
REMARK   25  A    between atoms: _58  and  _59
REMARK   26  A    between atoms: _64  and  _66
REMARK   27  A    between atoms: _66  and  _67
REMARK   28  A    between atoms: _66  and  _69
REMARK   29  A    between atoms: _69  and  _70
REMARK   30  A    between atoms: _73  and  _75
REMARK   31  A    between atoms: _75  and  _76
REMARK   32  A    between atoms: _75  and  _78
REMARK   33  A    between atoms: _78  and  _79
REMARK   34  A    between atoms: _79  and  _80
REMARK   35  A    between atoms: _82  and  _84
REMARK   36  A    between atoms: _84  and  _85
REMARK   37  A    between atoms: _84  and  _87
REMARK   38  A    between atoms: _87  and  _88
REMARK   39  A    between atoms: _88  and  _89
REMARK   40  A    between atoms: _89  and  _90
REMARK   41  A    between atoms: _99  and  _101
REMARK   42  A    between atoms: _101  and  _102
REMARK   43  A    between atoms: _101  and  _104
REMARK   44  A    between atoms: _104  and  _105
REMARK   45  A    between atoms: _110  and  _112
REMARK   46  A    between atoms: _112  and  _113
REMARK   47  A    between atoms: _112  and  _115
REMARK   48  A    between atoms: _115  and  _116
REMARK   49  A    between atoms: _121  and  _123
REMARK   50  A    between atoms: _123  and  _124
REMARK   51  A    between atoms: _123  and  _126
REMARK   52  A    between atoms: _126  and  _127
REMARK   53  A    between atoms: _127  and  _128
REMARK   54  A    between atoms: _128  and  _129
REMARK   55  A    between atoms: _138  and  _140
REMARK   56  A    between atoms: _140  and  _141
REMARK   57  A    between atoms: _140  and  _143
REMARK   58  A    between atoms: _143  and  _144
REMARK   59  A    between atoms: _146  and  _148
REMARK   60  A    between atoms: _148  and  _149
REMARK   61  A    between atoms: _148  and  _151
REMARK   62  A    between atoms: _151  and  _152
REMARK   63  A    between atoms: _157  and  _159
REMARK   64  A    between atoms: _159  and  _160
REMARK   65  A    between atoms: _159  and  _162
REMARK   66  A    between atoms: _162  and  _163
REMARK   67  A    between atoms: _163  and  _164
REMARK   68  A    between atoms: _167  and  _169
REMARK   69  A    between atoms: _169  and  _170
REMARK   70  A    between atoms: _169  and  _172
REMARK   71  A    between atoms: _172  and  _173
REMARK   72  A    between atoms: _173  and  _174
REMARK   73  A    between atoms: _174  and  _176
REMARK   74  A    between atoms: _176  and  MG_430
REMARK   75  A    between atoms: _177  and  _179
REMARK   76  A    between atoms: _179  and  _180
REMARK   77  A    between atoms: _179  and  _182
REMARK   78  A    between atoms: _182  and  _183
REMARK   79  A    between atoms: _188  and  _190
REMARK   80  A    between atoms: _190  and  _191
REMARK   81  A    between atoms: _193  and  _195
REMARK   82  A    between atoms: _195  and  _196
REMARK   83  A    between atoms: _195  and  _198
REMARK   84  A    between atoms: _198  and  _199
REMARK   85  A    between atoms: _202  and  _204
REMARK   86  A    between atoms: _204  and  _205
REMARK   87  A    between atoms: _204  and  _207
REMARK   88  A    between atoms: _207  and  _208
REMARK   89  A    between atoms: _208  and  _209
REMARK   90  A    between atoms: _209  and  _210
REMARK   91  A    between atoms: _210  and  MG_430
REMARK   92  A    between atoms: _212  and  _214
REMARK   93  A    between atoms: _214  and  _215
REMARK   94  A    between atoms: _214  and  _217
REMARK   95  A    between atoms: _217  and  _218
REMARK   96  A    between atoms: _218  and  _219
REMARK   97  A    between atoms: _222  and  _224
REMARK   98  A    between atoms: _224  and  _225
REMARK   99  A    between atoms: _224  and  _227
REMARK  100  A    between atoms: _227  and  _228
REMARK  101  A    between atoms: _228  and  _229
REMARK  102  A    between atoms: _231  and  _233
REMARK  103  A    between atoms: _233  and  _234
REMARK  104  A    between atoms: _233  and  _236
REMARK  105  A    between atoms: _236  and  _237
REMARK  106  A    between atoms: _242  and  _243
REMARK  107  A    between atoms: _245  and  _247
REMARK  108  A    between atoms: _247  and  _248
REMARK  109  A    between atoms: _247  and  _250
REMARK  110  A    between atoms: _250  and  _251
REMARK  111  A    between atoms: _251  and  _252
REMARK  112  A    between atoms: _252  and  _253
REMARK  113  A    between atoms: _253  and  _254
REMARK  114  A    between atoms: _258  and  _260
REMARK  115  A    between atoms: _260  and  _261
REMARK  116  A    between atoms: _260  and  _263
REMARK  117  A    between atoms: _265  and  _267
REMARK  118  A    between atoms: _267  and  _268
REMARK  119  A    between atoms: _267  and  _270
REMARK  120  A    between atoms: _270  and  _271
REMARK  121  A    between atoms: _271  and  _272
REMARK  122  A    between atoms: _275  and  _277
REMARK  123  A    between atoms: _277  and  _278
REMARK  124  A    between atoms: _277  and  _280
REMARK  125  A    between atoms: _280  and  _281
REMARK  126  A    between atoms: _286  and  _288
REMARK  127  A    between atoms: _288  and  _289
REMARK  128  A    between atoms: _292  and  _294
REMARK  129  A    between atoms: _294  and  _295
REMARK  130  A    between atoms: _294  and  _297
REMARK  131  A    between atoms: _297  and  _298
REMARK  132  A    between atoms: _298  and  _299
REMARK  133  A    between atoms: _301  and  _303
REMARK  134  A    between atoms: _303  and  _304
REMARK  135  A    between atoms: _303  and  _306
REMARK  136  A    between atoms: _306  and  _307
REMARK  137  A    between atoms: _317  and  _319
REMARK  138  A    between atoms: _319  and  _320
REMARK  139  A    between atoms: _319  and  _322
REMARK  140  A    between atoms: _322  and  _323
REMARK  141  A    between atoms: _326  and  _328
REMARK  142  A    between atoms: _328  and  _329
REMARK  143  A    between atoms: _328  and  _331
REMARK  144  A    between atoms: _331  and  _332
REMARK  145  A    between atoms: _332  and  _333
REMARK  146  A    between atoms: _338  and  _340
REMARK  147  A    between atoms: _340  and  _341
REMARK  148  A    between atoms: _340  and  _343
REMARK  149  A    between atoms: _343  and  _344
REMARK  150  A    between atoms: _344  and  _345
REMARK  151  A    between atoms: _350  and  _352
REMARK  152  A    between atoms: _352  and  _353
REMARK  153  A    between atoms: _352  and  _355
REMARK  154  A    between atoms: _355  and  _356
REMARK  155  A    between atoms: _362  and  _364
REMARK  156  A    between atoms: _364  and  _365
REMARK  157  A    between atoms: _364  and  _367
REMARK  158  A    between atoms: _369  and  _371
REMARK  159  A    between atoms: _371  and  _372
REMARK  160  A    between atoms: _371  and  _374
REMARK  161  A    between atoms: _374  and  _375
REMARK  162  A    between atoms: _375  and  _376
REMARK  163  A    between atoms: _378  and  _380
REMARK  164  A    between atoms: _380  and  _381
REMARK  165  A    between atoms: _380  and  _383
REMARK  166  A    between atoms: _383  and  _384
REMARK  167  A    between atoms: _384  and  _385
REMARK  168  A    between atoms: _384  and  _386
REMARK  169  A    between atoms: _389  and  _391
REMARK  170  A    between atoms: _391  and  _392
REMARK  171  A    between atoms: _391  and  _394
REMARK  172  A    between atoms: _394  and  _395
REMARK  173  A    between atoms: _397  and  _399
REMARK  174  A    between atoms: _399  and  _400
REMARK  175  A    between atoms: _399  and  _402
REMARK  176  A    between atoms: _402  and  _403
REMARK  177  A    between atoms: _406  and  _408
REMARK  178  A    between atoms: _408  and  _409
REMARK  179  A    between atoms: _408  and  _411
REMARK  180  A    between atoms: _411  and  _412
REMARK  181  A    between atoms: _414  and  _416
REMARK  182  A    between atoms: _416  and  _417
REMARK  183  A    between atoms: _416  and  _419
REMARK  184  A    between atoms: _419  and  _420
REMARK                            x       y       z     vdW  Elec       q    Type
REMARK                         _______ _______ _______ _____ _____    ______ ____
ROOT
ATOM      1  C   PHE A   2     -13.263 -33.067 -33.314  0.00  0.00    +0.000 C 
ATOM      2  O   PHE A   2     -12.713 -32.214 -32.598  0.00  0.00    +0.000 OA
ATOM      3  N   CYS A   3     -12.637 -34.161 -33.753  0.00  0.00    +0.000 N 
ATOM      4  H   CYS A   3     -13.187 -34.887 -34.255  0.00  0.00    +0.000 HD
ENDROOT
BRANCH   3   5
ATOM      5  CA  CYS A   3     -11.201 -34.375 -33.552  0.00  0.00    +0.000 C 
BRANCH   5   6
ATOM      6  C   CYS A   3     -10.344 -33.695 -34.619  0.00  0.00    +0.000 C 
ATOM      7  O   CYS A   3      -9.116 -33.732 -34.540  0.00  0.00    +0.000 OA
ATOM      8  N   MET A   4     -10.990 -33.070 -35.604  0.00  0.00    +0.000 N 
ATOM      9  H   MET A   4     -12.030 -33.058 -35.597  0.00  0.00    +0.000 HD
BRANCH   8  10
ATOM     10  CA  MET A   4     -10.281 -32.401 -36.693  0.00  0.00    +0.000 C 
BRANCH  10  11
ATOM     11  C   MET A   4     -10.489 -30.895 -36.612  0.00  0.00    +0.000 C 
ATOM     12  N   UNK A   5      -9.527 -30.222 -35.973  0.00  0.00    +0.000 N 
ATOM     13  H   UNK A   5      -8.676 -30.743 -35.681  0.00  0.00    +0.000 HD
ATOM     14  O   MET A   4     -11.501 -30.370 -37.093  0.00  0.00    +0.000 OA
BRANCH  12  15
ATOM     15  C   UNK A   5      -9.602 -28.790 -35.660  0.00  0.00    +0.000 C 
BRANCH  15  16
ATOM     16  C   UNK A   5      -8.343 -28.073 -36.130  0.00  0.00    +0.000 C 
ATOM     17  O   UNK A   5      -8.066 -26.938 -35.710  0.00  0.00    +0.000 OA
ENDBRANCH  15  16
BRANCH  15  18
ATOM     18  C   UNK A   5      -9.729 -28.554 -34.140  0.00  0.00    +0.000 C 
BRANCH  18  19
ATOM     19  C   UNK A   5     -10.770 -29.446 -33.463  0.00  0.00    +0.000 C 
BRANCH  19  20
ATOM     20  N   UNK A   5     -11.905 -29.667 -34.126  0.00  0.00    +0.000 NA
ATOM     21  H   UNK A   5     -12.652 -30.251 -33.698  0.00  0.00    +0.000 HD
ATOM     22  H   UNK A   5     -12.044 -29.256 -35.071  0.00  0.00    +0.000 HD
ENDBRANCH  19  20
BRANCH  19  23
ATOM     23  O   UNK A   5     -10.554 -29.911 -32.337  0.00  0.00    +0.000 OA
ATOM     24 NA   UNK A   5     -11.651 -31.115 -30.762  0.00  0.00    +0.000 Na
ENDBRANCH  19  23
ENDBRANCH  18  19
ENDBRANCH  15  18
ENDBRANCH  12  15
ENDBRANCH  10  11
BRANCH  10  25
ATOM     25  CB  MET A   4     -10.712 -32.959 -38.060  0.00  0.00    +0.000 C 
BRANCH  25  26
ATOM     26  CG  MET A   4     -10.497 -34.471 -38.207  0.00  0.00    +0.000 C 
BRANCH  26  27
ATOM     27  SD  MET A   4     -10.973 -35.114 -39.826  0.00  0.00    +0.000 S 
ATOM     28  CE  MET A   4     -12.695 -34.625 -39.893  0.00  0.00    +0.000 C 
ENDBRANCH  26  27
ENDBRANCH  25  26
ENDBRANCH  10  25
ENDBRANCH   8  10
ENDBRANCH   5   6
BRANCH   5  29
ATOM     29  CB  CYS A   3     -10.863 -35.868 -33.499  0.00  0.00    +0.000 C 
ATOM     30  SG  CYS A   3     -11.381 -36.812 -34.955  0.00  0.00    +0.000 S 
ENDBRANCH   5  29
ENDBRANCH   3   5
BRANCH   1  31
ATOM     31  CA  PHE A   2     -14.730 -32.898 -33.757  0.00  0.00    +0.000 C 
BRANCH  31  33
ATOM     32  C   GLN A   1     -14.694 -33.961 -35.959  0.00  0.00    +0.000 C 
ATOM     33  N   PHE A   2     -15.188 -33.900 -34.723  0.00  0.00    +0.000 N 
ATOM     34  H   PHE A   2     -15.919 -34.582 -34.436  0.00  0.00    +0.000 HD
ATOM     35  O   GLN A   1     -13.752 -33.257 -36.342  0.00  0.00    +0.000 OA
BRANCH  32  36
ATOM     36  CA  GLN A   1     -15.336 -34.974 -36.914  0.00  0.00    +0.000 C 
BRANCH  36  37
ATOM     37  N   GLN A   1     -16.418 -35.776 -36.326  0.00  0.00    +0.000 NA
ATOM     38  H   GLN A   1     -17.404 -35.534 -36.550  0.00  0.00    +0.000 HD
ENDBRANCH  36  37
BRANCH  36  39
ATOM     39  CB  GLN A   1     -15.796 -34.271 -38.206  0.00  0.00    +0.000 C 
BRANCH  39  40
ATOM     40  CG  GLN A   1     -16.836 -33.162 -38.029  0.00  0.00    +0.000 C 
BRANCH  40  41
ATOM     41  CD  GLN A   1     -18.266 -33.635 -38.245  0.00  0.00    +0.000 C 
ATOM     42  OE1 GLN A   1     -18.680 -34.671 -37.720  0.00  0.00    +0.000 OA
ATOM     43  NE2 GLN A   1     -19.033 -32.864 -39.014  0.00  0.00    +0.000 N 
ATOM     44 HE21 GLN A   1     -20.023 -33.128 -39.192  0.00  0.00    +0.000 HD
ATOM     45 HE22 GLN A   1     -18.642 -31.998 -39.437  0.00  0.00    +0.000 HD
ENDBRANCH  40  41
ENDBRANCH  39  40
ENDBRANCH  36  39
ENDBRANCH  32  36
ENDBRANCH  31  33
BRANCH  31  46
ATOM     46  CB  PHE A   2     -15.690 -32.820 -32.558  0.00  0.00    +0.000 C 
BRANCH  46  47
ATOM     47  CG  PHE A   2     -15.648 -31.502 -31.842  0.00  0.00    +0.000 A 
ATOM     48  CD2 PHE A   2     -15.177 -31.421 -30.535  0.00  0.00    +0.000 A 
ATOM     49  CE2 PHE A   2     -15.114 -30.198 -29.875  0.00  0.00    +0.000 A 
ATOM     50  CZ  PHE A   2     -15.518 -29.037 -30.530  0.00  0.00    +0.000 A 
ATOM     51  CE1 PHE A   2     -15.991 -29.106 -31.841  0.00  0.00    +0.000 A 
ATOM     52  CD1 PHE A   2     -16.051 -30.334 -32.487  0.00  0.00    +0.000 A 
ENDBRANCH  46  47
ENDBRANCH  31  46
ENDBRANCH   1  31
TORSDOF 23
REMARK  Name = ../refined-set-2016/3vdb/3vdb_pocket.pdb
REMARK  184 active torsions:
REMARK  status: ('A' for Active; 'I' for Inactive)
REMARK    1  A    between atoms: _1  and  _3
REMARK    2  A    between atoms: _3  and  _4
REMARK    3  A    between atoms: _3  and  _6
REMARK    4  A    between atoms: _6  and  _7
REMARK    5  A    between atoms: _12  and  _13
REMARK    6  A    between atoms: _15  and  _17
REMARK    7  A    between atoms: _17  and  _18
REMARK    8  A    between atoms: _17  and  _20
REMARK    9  A    between atoms: _20  and  _21
REMARK   10  A    between atoms: _24  and  _26
REMARK   11  A    between atoms: _26  and  _27
REMARK   12  A    between atoms: _26  and  _29
REMARK   13  A    between atoms: _29  and  _30
REMARK   14  A    between atoms: _35  and  _37
REMARK   15  A    between atoms: _37  and  _38
REMARK   16  A    between atoms: _37  and  _40
REMARK   17  A    between atoms: _43  and  _45
REMARK   18  A    between atoms: _45  and  _46
REMARK   19  A    between atoms: _45  and  _48
REMARK   20  A    between atoms: _48  and  _49
REMARK   21  A    between atoms: _52  and  _54
REMARK   22  A    between atoms: _54  and  _55
REMARK   23  A    between atoms: _54  and  _57
REMARK   24  A    between atoms: _57  and  _58
REMARK   25  A    between atoms: _58  and  _59
REMARK   26  A    between atoms: _64  and  _66
REMARK   27  A    between atoms: _66  and  _67
REMARK   28  A    between atoms: _66  and  _69
REMARK   29  A    between atoms: _69  and  _70
REMARK   30  A    between atoms: _73  and  _75
REMARK   31  A    between atoms: _75  and  _76
REMARK   32  A    between atoms: _75  and  _78
REMARK   33  A    between atoms: _78  and  _79
REMARK   34  A    between atoms: _79  and  _80
REMARK   35  A    between atoms: _82  and  _84
REMARK   36  A    between atoms: _84  and  _85
REMARK   37  A    between atoms: _84  and  _87
REMARK   38  A    between atoms: _87  and  _88
REMARK   39  A    between atoms: _88  and  _89
REMARK   40  A    between atoms: _89  and  _90
REMARK   41  A    between atoms: _99  and  _101
REMARK   42  A    between atoms: _101  and  _102
REMARK   43  A    between atoms: _101  and  _104
REMARK   44  A    between atoms: _104  and  _105
REMARK   45  A    between atoms: _110  and  _112
REMARK   46  A    between atoms: _112  and  _113
REMARK   47  A    between atoms: _112  and  _115
REMARK   48  A    between atoms: _115  and  _116
REMARK   49  A    between atoms: _121  and  _123
REMARK   50  A    between atoms: _123  and  _124
REMARK   51  A    between atoms: _123  and  _126
REMARK   52  A    between atoms: _126  and  _127
REMARK   53  A    between atoms: _127  and  _128
REMARK   54  A    between atoms: _128  and  _129
REMARK   55  A    between atoms: _138  and  _140
REMARK   56  A    between atoms: _140  and  _141
REMARK   57  A    between atoms: _140  and  _143
REMARK   58  A    between atoms: _143  and  _144
REMARK   59  A    between atoms: _146  and  _148
REMARK   60  A    between atoms: _148  and  _149
REMARK   61  A    between atoms: _148  and  _151
REMARK   62  A    between atoms: _151  and  _152
REMARK   63  A    between atoms: _157  and  _159
REMARK   64  A    between atoms: _159  and  _160
REMARK   65  A    between atoms: _159  and  _162
REMARK   66  A    between atoms: _162  and  _163
REMARK   67  A    between atoms: _163  and  _164
REMARK   68  A    between atoms: _167  and  _169
REMARK   69  A    between atoms: _169  and  _170
REMARK   70  A    between atoms: _169  and  _172
REMARK   71  A    between atoms: _172  and  _173
REMARK   72  A    between atoms: _173  and  _174
REMARK   73  A    between atoms: _174  and  _176
REMARK   74  A    between atoms: _176  and  MG_430
REMARK   75  A    between atoms: _177  and  _179
REMARK   76  A    between atoms: _179  and  _180
REMARK   77  A    between atoms: _179  and  _182
REMARK   78  A    between atoms: _182  and  _183
REMARK   79  A    between atoms: _188  and  _190
REMARK   80  A    between atoms: _190  and  _191
REMARK   81  A    between atoms: _193  and  _195
REMARK   82  A    between atoms: _195  and  _196
REMARK   83  A    between atoms: _195  and  _198
REMARK   84  A    between atoms: _198  and  _199
REMARK   85  A    between atoms: _202  and  _204
REMARK   86  A    between atoms: _204  and  _205
REMARK   87  A    between atoms: _204  and  _207
REMARK   88  A    between atoms: _207  and  _208
REMARK   89  A    between atoms: _208  and  _209
REMARK   90  A    between atoms: _209  and  _210
REMARK   91  A    between atoms: _210  and  MG_430
REMARK   92  A    between atoms: _212  and  _214
REMARK   93  A    between atoms: _214  and  _215
REMARK   94  A    between atoms: _214  and  _217
REMARK   95  A    between atoms: _217  and  _218
REMARK   96  A    between atoms: _218  and  _219
REMARK   97  A    between atoms: _222  and  _224
REMARK   98  A    between atoms: _224  and  _225
REMARK   99  A    between atoms: _224  and  _227
REMARK  100  A    between atoms: _227  and  _228
REMARK  101  A    between atoms: _228  and  _229
REMARK  102  A    between atoms: _231  and  _233
REMARK  103  A    between atoms: _233  and  _234
REMARK  104  A    between atoms: _233  and  _236
REMARK  105  A    between atoms: _236  and  _237
REMARK  106  A    between atoms: _242  and  _243
REMARK  107  A    between atoms: _245  and  _247
REMARK  108  A    between atoms: _247  and  _248
REMARK  109  A    between atoms: _247  and  _250
REMARK  110  A    between atoms: _250  and  _251
REMARK  111  A    between atoms: _251  and  _252
REMARK  112  A    between atoms: _252  and  _253
REMARK  113  A    between atoms: _253  and  _254
REMARK  114  A    between atoms: _258  and  _260
REMARK  115  A    between atoms: _260  and  _261
REMARK  116  A    between atoms: _260  and  _263
REMARK  117  A    between atoms: _265  and  _267
REMARK  118  A    between atoms: _267  and  _268
REMARK  119  A    between atoms: _267  and  _270
REMARK  120  A    between atoms: _270  and  _271
REMARK  121  A    between atoms: _271  and  _272
REMARK  122  A    between atoms: _275  and  _277
REMARK  123  A    between atoms: _277  and  _278
REMARK  124  A    between atoms: _277  and  _280
REMARK  125  A    between atoms: _280  and  _281
REMARK  126  A    between atoms: _286  and  _288
REMARK  127  A    between atoms: _288  and  _289
REMARK  128  A    between atoms: _292  and  _294
REMARK  129  A    between atoms: _294  and  _295
REMARK  130  A    between atoms: _294  and  _297
REMARK  131  A    between atoms: _297  and  _298
REMARK  132  A    between atoms: _298  and  _299
REMARK  133  A    between atoms: _301  and  _303
REMARK  134  A    between atoms: _303  and  _304
REMARK  135  A    between atoms: _303  and  _306
REMARK  136  A    between atoms: _306  and  _307
REMARK  137  A    between atoms: _317  and  _319
REMARK  138  A    between atoms: _319  and  _320
REMARK  139  A    between atoms: _319  and  _322
REMARK  140  A    between atoms: _322  and  _323
REMARK  141  A    between atoms: _326  and  _328
REMARK  142  A    between atoms: _328  and  _329
REMARK  143  A    between atoms: _328  and  _331
REMARK  144  A    between atoms: _331  and  _332
REMARK  145  A    between atoms: _332  and  _333
REMARK  146  A    between atoms: _338  and  _340
REMARK  147  A    between atoms: _340  and  _341
REMARK  148  A    between atoms: _340  and  _343
REMARK  149  A    between atoms: _343  and  _344
REMARK  150  A    between atoms: _344  and  _345
REMARK  151  A    between atoms: _350  and  _352
REMARK  152  A    between atoms: _352  and  _353
REMARK  153  A    between atoms: _352  and  _355
REMARK  154  A    between atoms: _355  and  _356
REMARK  155  A    between atoms: _362  and  _364
REMARK  156  A    between atoms: _364  and  _365
REMARK  157  A    between atoms: _364  and  _367
REMARK  158  A    between atoms: _369  and  _371
REMARK  159  A    between atoms: _371  and  _372
REMARK  160  A    between atoms: _371  and  _374
REMARK  161  A    between atoms: _374  and  _375
REMARK  162  A    between atoms: _375  and  _376
REMARK  163  A    between atoms: _378  and  _380
REMARK  164  A    between atoms: _380  and  _381
REMARK  165  A    between atoms: _380  and  _383
REMARK  166  A    between atoms: _383  and  _384
REMARK  167  A    between atoms: _384  and  _385
REMARK  168  A    between atoms: _384  and  _386
REMARK  169  A    between atoms: _389  and  _391
REMARK  170  A    between atoms: _391  and  _392
REMARK  171  A    between atoms: _391  and  _394
REMARK  172  A    between atoms: _394  and  _395
REMARK  173  A    between atoms: _397  and  _399
REMARK  174  A    between atoms: _399  and  _400
REMARK  175  A    between atoms: _399  and  _402
REMARK  176  A    between atoms: _402  and  _403
REMARK  177  A    between atoms: _406  and  _408
REMARK  178  A    between atoms: _408  and  _409
REMARK  179  A    between atoms: _408  and  _411
REMARK  180  A    between atoms: _411  and  _412
REMARK  181  A    between atoms: _414  and  _416
REMARK  182  A    between atoms: _416  and  _417
REMARK  183  A    between atoms: _416  and  _419
REMARK  184  A    between atoms: _419  and  _420
REMARK                            x       y       z     vdW  Elec       q    Type
REMARK                         _______ _______ _______ _____ _____    ______ ____
ROOT
ATOM      1  CA  SER A   1     -18.915 -30.155 -30.000  0.00  0.00    +0.163 C 
ENDROOT
BRANCH   1   2
ATOM      2  N   SER A   1     -20.164 -29.663 -30.598  0.00  0.00    -0.237 NA
ATOM      3  H   SER A   1     -20.922 -29.337 -29.966  0.00  0.00    +0.142 HD
ENDBRANCH   1   2
BRANCH   1   4
ATOM      4  CB  SER A   1     -19.060 -31.622 -29.596  0.00  0.00    +0.227 C 
ATOM      5  OG  SER A   1     -18.068 -32.325 -29.369  0.00  0.00    -0.287 OA
ENDBRANCH   1   4
BRANCH   1   6
ATOM      6  C   SER A   1     -18.486 -29.289 -28.797  0.00  0.00    +0.162 C 
BRANCH   6   7
ATOM      7  O   SER A   1     -19.493 -29.204 -27.798  0.00  0.00    -0.380 OA
ATOM      8  H   SER A   1     -19.169 -28.640 -27.052  0.00  0.00    +0.211 HD
ENDBRANCH   6   7
ENDBRANCH   1   6
TORSDOF 4
REMARK  Name = ../refined-set-2016/3vdb/3vdb_pocket.pdb
REMARK  184 active torsions:
REMARK  status: ('A' for Active; 'I' for Inactive)
REMARK    1  A    between atoms: _1  and  _3
REMARK    2  A    between atoms: _3  and  _4
REMARK    3  A    between atoms: _3  and  _6
REMARK    4  A    between atoms: _6  and  _7
REMARK    5  A    between atoms: _12  and  _13
REMARK    6  A    between atoms: _15  and  _17
REMARK    7  A    between atoms: _17  and  _18
REMARK    8  A    between atoms: _17  and  _20
REMARK    9  A    between atoms: _20  and  _21
REMARK   10  A    between atoms: _24  and  _26
REMARK   11  A    between atoms: _26  and  _27
REMARK   12  A    between atoms: _26  and  _29
REMARK   13  A    between atoms: _29  and  _30
REMARK   14  A    between atoms: _35  and  _37
REMARK   15  A    between atoms: _37  and  _38
REMARK   16  A    between atoms: _37  and  _40
REMARK   17  A    between atoms: _43  and  _45
REMARK   18  A    between atoms: _45  and  _46
REMARK   19  A    between atoms: _45  and  _48
REMARK   20  A    between atoms: _48  and  _49
REMARK   21  A    between atoms: _52  and  _54
REMARK   22  A    between atoms: _54  and  _55
REMARK   23  A    between atoms: _54  and  _57
REMARK   24  A    between atoms: _57  and  _58
REMARK   25  A    between atoms: _58  and  _59
REMARK   26  A    between atoms: _64  and  _66
REMARK   27  A    between atoms: _66  and  _67
REMARK   28  A    between atoms: _66  and  _69
REMARK   29  A    between atoms: _69  and  _70
REMARK   30  A    between atoms: _73  and  _75
REMARK   31  A    between atoms: _75  and  _76
REMARK   32  A    between atoms: _75  and  _78
REMARK   33  A    between atoms: _78  and  _79
REMARK   34  A    between atoms: _79  and  _80
REMARK   35  A    between atoms: _82  and  _84
REMARK   36  A    between atoms: _84  and  _85
REMARK   37  A    between atoms: _84  and  _87
REMARK   38  A    between atoms: _87  and  _88
REMARK   39  A    between atoms: _88  and  _89
REMARK   40  A    between atoms: _89  and  _90
REMARK   41  A    between atoms: _99  and  _101
REMARK   42  A    between atoms: _101  and  _102
REMARK   43  A    between atoms: _101  and  _104
REMARK   44  A    between atoms: _104  and  _105
REMARK   45  A    between atoms: _110  and  _112
REMARK   46  A    between atoms: _112  and  _113
REMARK   47  A    between atoms: _112  and  _115
REMARK   48  A    between atoms: _115  and  _116
REMARK   49  A    between atoms: _121  and  _123
REMARK   50  A    between atoms: _123  and  _124
REMARK   51  A    between atoms: _123  and  _126
REMARK   52  A    between atoms: _126  and  _127
REMARK   53  A    between atoms: _127  and  _128
REMARK   54  A    between atoms: _128  and  _129
REMARK   55  A    between atoms: _138  and  _140
REMARK   56  A    between atoms: _140  and  _141
REMARK   57  A    between atoms: _140  and  _143
REMARK   58  A    between atoms: _143  and  _144
REMARK   59  A    between atoms: _146  and  _148
REMARK   60  A    between atoms: _148  and  _149
REMARK   61  A    between atoms: _148  and  _151
REMARK   62  A    between atoms: _151  and  _152
REMARK   63  A    between atoms: _157  and  _159
REMARK   64  A    between atoms: _159  and  _160
REMARK   65  A    between atoms: _159  and  _162
REMARK   66  A    between atoms: _162  and  _163
REMARK   67  A    between atoms: _163  and  _164
REMARK   68  A    between atoms: _167  and  _169
REMARK   69  A    between atoms: _169  and  _170
REMARK   70  A    between atoms: _169  and  _172
REMARK   71  A    between atoms: _172  and  _173
REMARK   72  A    between atoms: _173  and  _174
REMARK   73  A    between atoms: _174  and  _176
REMARK   74  A    between atoms: _176  and  MG_430
REMARK   75  A    between atoms: _177  and  _179
REMARK   76  A    between atoms: _179  and  _180
REMARK   77  A    between atoms: _179  and  _182
REMARK   78  A    between atoms: _182  and  _183
REMARK   79  A    between atoms: _188  and  _190
REMARK   80  A    between atoms: _190  and  _191
REMARK   81  A    between atoms: _193  and  _195
REMARK   82  A    between atoms: _195  and  _196
REMARK   83  A    between atoms: _195  and  _198
REMARK   84  A    between atoms: _198  and  _199
REMARK   85  A    between atoms: _202  and  _204
REMARK   86  A    between atoms: _204  and  _205
REMARK   87  A    between atoms: _204  and  _207
REMARK   88  A    between atoms: _207  and  _208
REMARK   89  A    between atoms: _208  and  _209
REMARK   90  A    between atoms: _209  and  _210
REMARK   91  A    between atoms: _210  and  MG_430
REMARK   92  A    between atoms: _212  and  _214
REMARK   93  A    between atoms: _214  and  _215
REMARK   94  A    between atoms: _214  and  _217
REMARK   95  A    between atoms: _217  and  _218
REMARK   96  A    between atoms: _218  and  _219
REMARK   97  A    between atoms: _222  and  _224
REMARK   98  A    between atoms: _224  and  _225
REMARK   99  A    between atoms: _224  and  _227
REMARK  100  A    between atoms: _227  and  _228
REMARK  101  A    between atoms: _228  and  _229
REMARK  102  A    between atoms: _231  and  _233
REMARK  103  A    between atoms: _233  and  _234
REMARK  104  A    between atoms: _233  and  _236
REMARK  105  A    between atoms: _236  and  _237
REMARK  106  A    between atoms: _242  and  _243
REMARK  107  A    between atoms: _245  and  _247
REMARK  108  A    between atoms: _247  and  _248
REMARK  109  A    between atoms: _247  and  _250
REMARK  110  A    between atoms: _250  and  _251
REMARK  111  A    between atoms: _251  and  _252
REMARK  112  A    between atoms: _252  and  _253
REMARK  113  A    between atoms: _253  and  _254
REMARK  114  A    between atoms: _258  and  _260
REMARK  115  A    between atoms: _260  and  _261
REMARK  116  A    between atoms: _260  and  _263
REMARK  117  A    between atoms: _265  and  _267
REMARK  118  A    between atoms: _267  and  _268
REMARK  119  A    between atoms: _267  and  _270
REMARK  120  A    between atoms: _270  and  _271
REMARK  121  A    between atoms: _271  and  _272
REMARK  122  A    between atoms: _275  and  _277
REMARK  123  A    between atoms: _277  and  _278
REMARK  124  A    between atoms: _277  and  _280
REMARK  125  A    between atoms: _280  and  _281
REMARK  126  A    between atoms: _286  and  _288
REMARK  127  A    between atoms: _288  and  _289
REMARK  128  A    between atoms: _292  and  _294
REMARK  129  A    between atoms: _294  and  _295
REMARK  130  A    between atoms: _294  and  _297
REMARK  131  A    between atoms: _297  and  _298
REMARK  132  A    between atoms: _298  and  _299
REMARK  133  A    between atoms: _301  and  _303
REMARK  134  A    between atoms: _303  and  _304
REMARK  135  A    between atoms: _303  and  _306
REMARK  136  A    between atoms: _306  and  _307
REMARK  137  A    between atoms: _317  and  _319
REMARK  138  A    between atoms: _319  and  _320
REMARK  139  A    between atoms: _319  and  _322
REMARK  140  A    between atoms: _322  and  _323
REMARK  141  A    between atoms: _326  and  _328
REMARK  142  A    between atoms: _328  and  _329
REMARK  143  A    between atoms: _328  and  _331
REMARK  144  A    between atoms: _331  and  _332
REMARK  145  A    between atoms: _332  and  _333
REMARK  146  A    between atoms: _338  and  _340
REMARK  147  A    between atoms: _340  and  _341
REMARK  148  A    between atoms: _340  and  _343
REMARK  149  A    between atoms: _343  and  _344
REMARK  150  A    between atoms: _344  and  _345
REMARK  151  A    between atoms: _350  and  _352
REMARK  152  A    between atoms: _352  and  _353
REMARK  153  A    between atoms: _352  and  _355
REMARK  154  A    between atoms: _355  and  _356
REMARK  155  A    between atoms: _362  and  _364
REMARK  156  A    between atoms: _364  and  _365
REMARK  157  A    between atoms: _364  and  _367
REMARK  158  A    between atoms: _369  and  _371
REMARK  159  A    between atoms: _371  and  _372
REMARK  160  A    between atoms: _371  and  _374
REMARK  161  A    between atoms: _374  and  _375
REMARK  162  A    between atoms: _375  and  _376
REMARK  163  A    between atoms: _378  and  _380
REMARK  164  A    between atoms: _380  and  _381
REMARK  165  A    between atoms: _380  and  _383
REMARK  166  A    between atoms: _383  and  _384
REMARK  167  A    between atoms: _384  and  _385
REMARK  168  A    between atoms: _384  and  _386
REMARK  169  A    between atoms: _389  and  _391
REMARK  170  A    between atoms: _391  and  _392
REMARK  171  A    between atoms: _391  and  _394
REMARK  172  A    between atoms: _394  and  _395
REMARK  173  A    between atoms: _397  and  _399
REMARK  174  A    between atoms: _399  and  _400
REMARK  175  A    between atoms: _399  and  _402
REMARK  176  A    between atoms: _402  and  _403
REMARK  177  A    between atoms: _406  and  _408
REMARK  178  A    between atoms: _408  and  _409
REMARK  179  A    between atoms: _408  and  _411
REMARK  180  A    between atoms: _411  and  _412
REMARK  181  A    between atoms: _414  and  _416
REMARK  182  A    between atoms: _416  and  _417
REMARK  183  A    between atoms: _416  and  _419
REMARK  184  A    between atoms: _419  and  _420
REMARK                            x       y       z     vdW  Elec       q    Type
REMARK                         _______ _______ _______ _____ _____    ______ ____
ROOT
ATOM      1  C   SER A   2     -18.612 -24.932 -32.861  0.00  0.00    +0.243 C 
ATOM      2  N   TRP A   3     -19.133 -24.394 -31.759  0.00  0.00    -0.298 N 
ATOM      3  H   TRP A   3     -18.723 -23.519 -31.374  0.00  0.00    +0.150 HD
ATOM      4  O   SER A   2     -19.065 -25.953 -33.376  0.00  0.00    -0.273 OA
ENDROOT
BRANCH   1   5
ATOM      5  CA  SER A   2     -17.409 -24.220 -33.484  0.00  0.00    +0.178 C 
BRANCH   5   7
ATOM      6  C   ASP A   1     -16.555 -22.087 -32.665  0.00  0.00    +0.239 C 
ATOM      7  N   SER A   2     -16.672 -23.403 -32.518  0.00  0.00    -0.295 N 
ATOM      8  H   SER A   2     -16.229 -23.863 -31.697  0.00  0.00    +0.150 HD
ATOM      9  O   ASP A   1     -17.063 -21.468 -33.604  0.00  0.00    -0.274 OA
BRANCH   6  10
ATOM     10  CA  ASP A   1     -15.739 -21.342 -31.611  0.00  0.00    +0.156 C 
BRANCH  10  11
ATOM     11  N   ASP A   1     -15.687 -19.940 -32.014  0.00  0.00    -0.238 NA
ATOM     12  H   ASP A   1     -16.502 -19.530 -32.513  0.00  0.00    +0.142 HD
ENDBRANCH  10  11
BRANCH  10  13
ATOM     13  CB  ASP A   1     -16.295 -21.525 -30.187  0.00  0.00    +0.140 C 
BRANCH  13  14
ATOM     14  CG  ASP A   1     -17.702 -20.985 -30.027  0.00  0.00    +0.367 C 
ATOM     15  OD2 ASP A   1     -17.862 -19.929 -29.378  0.00  0.00    -0.246 OA
ATOM     16  OD1 ASP A   1     -18.653 -21.626 -30.525  0.00  0.00    -0.246 OA
ENDBRANCH  13  14
ENDBRANCH  10  13
ENDBRANCH   6  10
ENDBRANCH   5   7
BRANCH   5  17
ATOM     17  CB  SER A   2     -16.466 -25.241 -34.132  0.00  0.00    +0.166 C 
BRANCH  17  18
ATOM     18  OG  SER A   2     -15.375 -24.600 -34.776  0.00  0.00    -0.380 OA
ATOM     19  H   SER A   2     -15.718 -23.996 -35.481  0.00  0.00    +0.211 HD
ENDBRANCH  17  18
ENDBRANCH   5  17
ENDBRANCH   1   5
BRANCH   2  20
ATOM     20  CA  TRP A   3     -20.275 -25.015 -31.079  0.00  0.00    +0.141 C 
BRANCH  20  21
ATOM     21  C   TRP A   3     -21.357 -24.006 -30.681  0.00  0.00    +0.227 C 
ATOM     22  O   TRP A   3     -22.225 -24.296 -29.862  0.00  0.00    -0.286 OA
ENDBRANCH  20  21
BRANCH  20  23
ATOM     23  CB  TRP A   3     -19.812 -25.844 -29.872  0.00  0.00    +0.056 C 
BRANCH  23  24
ATOM     24  CG  TRP A   3     -18.841 -25.140 -28.970  0.00  0.00    -0.002 A 
ATOM     25  CD1 TRP A   3     -19.138 -24.414 -27.852  0.00  0.00    +0.068 A 
ATOM     26  NE1 TRP A   3     -17.989 -23.925 -27.283  0.00  0.00    -0.352 N 
ATOM     27  HE1 TRP A   3     -17.940 -23.340 -26.425  0.00  0.00    +0.166 HD
ATOM     28  CE2 TRP A   3     -16.916 -24.334 -28.031  0.00  0.00    +0.056 A 
ATOM     29  CZ2 TRP A   3     -15.546 -24.097 -27.852  0.00  0.00    +0.017 A 
ATOM     30  CH2 TRP A   3     -14.686 -24.638 -28.773  0.00  0.00    +0.001 A 
ATOM     31  CZ3 TRP A   3     -15.156 -25.413 -29.854  0.00  0.00    +0.000 A 
ATOM     32  CE3 TRP A   3     -16.514 -25.655 -30.026  0.00  0.00    +0.001 A 
ATOM     33  CD2 TRP A   3     -17.418 -25.109 -29.102  0.00  0.00    +0.013 A 
ENDBRANCH  23  24
ENDBRANCH  20  23
ENDBRANCH   2  20
TORSDOF 12
REMARK  Name = ../refined-set-2016/3vdb/3vdb_pocket.pdb
REMARK  184 active torsions:
REMARK  status: ('A' for Active; 'I' for Inactive)
REMARK    1  A    between atoms: _1  and  _3
REMARK    2  A    between atoms: _3  and  _4
REMARK    3  A    between atoms: _3  and  _6
REMARK    4  A    between atoms: _6  and  _7
REMARK    5  A    between atoms: _12  and  _13
REMARK    6  A    between atoms: _15  and  _17
REMARK    7  A    between atoms: _17  and  _18
REMARK    8  A    between atoms: _17  and  _20
REMARK    9  A    between atoms: _20  and  _21
REMARK   10  A    between atoms: _24  and  _26
REMARK   11  A    between atoms: _26  and  _27
REMARK   12  A    between atoms: _26  and  _29
REMARK   13  A    between atoms: _29  and  _30
REMARK   14  A    between atoms: _35  and  _37
REMARK   15  A    between atoms: _37  and  _38
REMARK   16  A    between atoms: _37  and  _40
REMARK   17  A    between atoms: _43  and  _45
REMARK   18  A    between atoms: _45  and  _46
REMARK   19  A    between atoms: _45  and  _48
REMARK   20  A    between atoms: _48  and  _49
REMARK   21  A    between atoms: _52  and  _54
REMARK   22  A    between atoms: _54  and  _55
REMARK   23  A    between atoms: _54  and  _57
REMARK   24  A    between atoms: _57  and  _58
REMARK   25  A    between atoms: _58  and  _59
REMARK   26  A    between atoms: _64  and  _66
REMARK   27  A    between atoms: _66  and  _67
REMARK   28  A    between atoms: _66  and  _69
REMARK   29  A    between atoms: _69  and  _70
REMARK   30  A    between atoms: _73  and  _75
REMARK   31  A    between atoms: _75  and  _76
REMARK   32  A    between atoms: _75  and  _78
REMARK   33  A    between atoms: _78  and  _79
REMARK   34  A    between atoms: _79  and  _80
REMARK   35  A    between atoms: _82  and  _84
REMARK   36  A    between atoms: _84  and  _85
REMARK   37  A    between atoms: _84  and  _87
REMARK   38  A    between atoms: _87  and  _88
REMARK   39  A    between atoms: _88  and  _89
REMARK   40  A    between atoms: _89  and  _90
REMARK   41  A    between atoms: _99  and  _101
REMARK   42  A    between atoms: _101  and  _102
REMARK   43  A    between atoms: _101  and  _104
REMARK   44  A    between atoms: _104  and  _105
REMARK   45  A    between atoms: _110  and  _112
REMARK   46  A    between atoms: _112  and  _113
REMARK   47  A    between atoms: _112  and  _115
REMARK   48  A    between atoms: _115  and  _116
REMARK   49  A    between atoms: _121  and  _123
REMARK   50  A    between atoms: _123  and  _124
REMARK   51  A    between atoms: _123  and  _126
REMARK   52  A    between atoms: _126  and  _127
REMARK   53  A    between atoms: _127  and  _128
REMARK   54  A    between atoms: _128  and  _129
REMARK   55  A    between atoms: _138  and  _140
REMARK   56  A    between atoms: _140  and  _141
REMARK   57  A    between atoms: _140  and  _143
REMARK   58  A    between atoms: _143  and  _144
REMARK   59  A    between atoms: _146  and  _148
REMARK   60  A    between atoms: _148  and  _149
REMARK   61  A    between atoms: _148  and  _151
REMARK   62  A    between atoms: _151  and  _152
REMARK   63  A    between atoms: _157  and  _159
REMARK   64  A    between atoms: _159  and  _160
REMARK   65  A    between atoms: _159  and  _162
REMARK   66  A    between atoms: _162  and  _163
REMARK   67  A    between atoms: _163  and  _164
REMARK   68  A    between atoms: _167  and  _169
REMARK   69  A    between atoms: _169  and  _170
REMARK   70  A    between atoms: _169  and  _172
REMARK   71  A    between atoms: _172  and  _173
REMARK   72  A    between atoms: _173  and  _174
REMARK   73  A    between atoms: _174  and  _176
REMARK   74  A    between atoms: _176  and  MG_430
REMARK   75  A    between atoms: _177  and  _179
REMARK   76  A    between atoms: _179  and  _180
REMARK   77  A    between atoms: _179  and  _182
REMARK   78  A    between atoms: _182  and  _183
REMARK   79  A    between atoms: _188  and  _190
REMARK   80  A    between atoms: _190  and  _191
REMARK   81  A    between atoms: _193  and  _195
REMARK   82  A    between atoms: _195  and  _196
REMARK   83  A    between atoms: _195  and  _198
REMARK   84  A    between atoms: _198  and  _199
REMARK   85  A    between atoms: _202  and  _204
REMARK   86  A    between atoms: _204  and  _205
REMARK   87  A    between atoms: _204  and  _207
REMARK   88  A    between atoms: _207  and  _208
REMARK   89  A    between atoms: _208  and  _209
REMARK   90  A    between atoms: _209  and  _210
REMARK   91  A    between atoms: _210  and  MG_430
REMARK   92  A    between atoms: _212  and  _214
REMARK   93  A    between atoms: _214  and  _215
REMARK   94  A    between atoms: _214  and  _217
REMARK   95  A    between atoms: _217  and  _218
REMARK   96  A    between atoms: _218  and  _219
REMARK   97  A    between atoms: _222  and  _224
REMARK   98  A    between atoms: _224  and  _225
REMARK   99  A    between atoms: _224  and  _227
REMARK  100  A    between atoms: _227  and  _228
REMARK  101  A    between atoms: _228  and  _229
REMARK  102  A    between atoms: _231  and  _233
REMARK  103  A    between atoms: _233  and  _234
REMARK  104  A    between atoms: _233  and  _236
REMARK  105  A    between atoms: _236  and  _237
REMARK  106  A    between atoms: _242  and  _243
REMARK  107  A    between atoms: _245  and  _247
REMARK  108  A    between atoms: _247  and  _248
REMARK  109  A    between atoms: _247  and  _250
REMARK  110  A    between atoms: _250  and  _251
REMARK  111  A    between atoms: _251  and  _252
REMARK  112  A    between atoms: _252  and  _253
REMARK  113  A    between atoms: _253  and  _254
REMARK  114  A    between atoms: _258  and  _260
REMARK  115  A    between atoms: _260  and  _261
REMARK  116  A    between atoms: _260  and  _263
REMARK  117  A    between atoms: _265  and  _267
REMARK  118  A    between atoms: _267  and  _268
REMARK  119  A    between atoms: _267  and  _270
REMARK  120  A    between atoms: _270  and  _271
REMARK  121  A    between atoms: _271  and  _272
REMARK  122  A    between atoms: _275  and  _277
REMARK  123  A    between atoms: _277  and  _278
REMARK  124  A    between atoms: _277  and  _280
REMARK  125  A    between atoms: _280  and  _281
REMARK  126  A    between atoms: _286  and  _288
REMARK  127  A    between atoms: _288  and  _289
REMARK  128  A    between atoms: _292  and  _294
REMARK  129  A    between atoms: _294  and  _295
REMARK  130  A    between atoms: _294  and  _297
REMARK  131  A    between atoms: _297  and  _298
REMARK  132  A    between atoms: _298  and  _299
REMARK  133  A    between atoms: _301  and  _303
REMARK  134  A    between atoms: _303  and  _304
REMARK  135  A    between atoms: _303  and  _306
REMARK  136  A    between atoms: _306  and  _307
REMARK  137  A    between atoms: _317  and  _319
REMARK  138  A    between atoms: _319  and  _320
REMARK  139  A    between atoms: _319  and  _322
REMARK  140  A    between atoms: _322  and  _323
REMARK  141  A    between atoms: _326  and  _328
REMARK  142  A    between atoms: _328  and  _329
REMARK  143  A    between atoms: _328  and  _331
REMARK  144  A    between atoms: _331  and  _332
REMARK  145  A    between atoms: _332  and  _333
REMARK  146  A    between atoms: _338  and  _340
REMARK  147  A    between atoms: _340  and  _341
REMARK  148  A    between atoms: _340  and  _343
REMARK  149  A    between atoms: _343  and  _344
REMARK  150  A    between atoms: _344  and  _345
REMARK  151  A    between atoms: _350  and  _352
REMARK  152  A    between atoms: _352  and  _353
REMARK  153  A    between atoms: _352  and  _355
REMARK  154  A    between atoms: _355  and  _356
REMARK  155  A    between atoms: _362  and  _364
REMARK  156  A    between atoms: _364  and  _365
REMARK  157  A    between atoms: _364  and  _367
REMARK  158  A    between atoms: _369  and  _371
REMARK  159  A    between atoms: _371  and  _372
REMARK  160  A    between atoms: _371  and  _374
REMARK  161  A    between atoms: _374  and  _375
REMARK  162  A    between atoms: _375  and  _376
REMARK  163  A    between atoms: _378  and  _380
REMARK  164  A    between atoms: _380  and  _381
REMARK  165  A    between atoms: _380  and  _383
REMARK  166  A    between atoms: _383  and  _384
REMARK  167  A    between atoms: _384  and  _385
REMARK  168  A    between atoms: _384  and  _386
REMARK  169  A    between atoms: _389  and  _391
REMARK  170  A    between atoms: _391  and  _392
REMARK  171  A    between atoms: _391  and  _394
REMARK  172  A    between atoms: _394  and  _395
REMARK  173  A    between atoms: _397  and  _399
REMARK  174  A    between atoms: _399  and  _400
REMARK  175  A    between atoms: _399  and  _402
REMARK  176  A    between atoms: _402  and  _403
REMARK  177  A    between atoms: _406  and  _408
REMARK  178  A    between atoms: _408  and  _409
REMARK  179  A    between atoms: _408  and  _411
REMARK  180  A    between atoms: _411  and  _412
REMARK  181  A    between atoms: _414  and  _416
REMARK  182  A    between atoms: _416  and  _417
REMARK  183  A    between atoms: _416  and  _419
REMARK  184  A    between atoms: _419  and  _420
REMARK                            x       y       z     vdW  Elec       q    Type
REMARK                         _______ _______ _______ _____ _____    ______ ____
ROOT
ATOM      1  O   HOH     1      -7.752 -32.015 -26.806  0.00  0.00    +0.000 OA
ENDROOT
TORSDOF 0
REMARK  Name = ../refined-set-2016/3vdb/3vdb_pocket.pdb
REMARK  184 active torsions:
REMARK  status: ('A' for Active; 'I' for Inactive)
REMARK    1  A    between atoms: _1  and  _3
REMARK    2  A    between atoms: _3  and  _4
REMARK    3  A    between atoms: _3  and  _6
REMARK    4  A    between atoms: _6  and  _7
REMARK    5  A    between atoms: _12  and  _13
REMARK    6  A    between atoms: _15  and  _17
REMARK    7  A    between atoms: _17  and  _18
REMARK    8  A    between atoms: _17  and  _20
REMARK    9  A    between atoms: _20  and  _21
REMARK   10  A    between atoms: _24  and  _26
REMARK   11  A    between atoms: _26  and  _27
REMARK   12  A    between atoms: _26  and  _29
REMARK   13  A    between atoms: _29  and  _30
REMARK   14  A    between atoms: _35  and  _37
REMARK   15  A    between atoms: _37  and  _38
REMARK   16  A    between atoms: _37  and  _40
REMARK   17  A    between atoms: _43  and  _45
REMARK   18  A    between atoms: _45  and  _46
REMARK   19  A    between atoms: _45  and  _48
REMARK   20  A    between atoms: _48  and  _49
REMARK   21  A    between atoms: _52  and  _54
REMARK   22  A    between atoms: _54  and  _55
REMARK   23  A    between atoms: _54  and  _57
REMARK   24  A    between atoms: _57  and  _58
REMARK   25  A    between atoms: _58  and  _59
REMARK   26  A    between atoms: _64  and  _66
REMARK   27  A    between atoms: _66  and  _67
REMARK   28  A    between atoms: _66  and  _69
REMARK   29  A    between atoms: _69  and  _70
REMARK   30  A    between atoms: _73  and  _75
REMARK   31  A    between atoms: _75  and  _76
REMARK   32  A    between atoms: _75  and  _78
REMARK   33  A    between atoms: _78  and  _79
REMARK   34  A    between atoms: _79  and  _80
REMARK   35  A    between atoms: _82  and  _84
REMARK   36  A    between atoms: _84  and  _85
REMARK   37  A    between atoms: _84  and  _87
REMARK   38  A    between atoms: _87  and  _88
REMARK   39  A    between atoms: _88  and  _89
REMARK   40  A    between atoms: _89  and  _90
REMARK   41  A    between atoms: _99  and  _101
REMARK   42  A    between atoms: _101  and  _102
REMARK   43  A    between atoms: _101  and  _104
REMARK   44  A    between atoms: _104  and  _105
REMARK   45  A    between atoms: _110  and  _112
REMARK   46  A    between atoms: _112  and  _113
REMARK   47  A    between atoms: _112  and  _115
REMARK   48  A    between atoms: _115  and  _116
REMARK   49  A    between atoms: _121  and  _123
REMARK   50  A    between atoms: _123  and  _124
REMARK   51  A    between atoms: _123  and  _126
REMARK   52  A    between atoms: _126  and  _127
REMARK   53  A    between atoms: _127  and  _128
REMARK   54  A    between atoms: _128  and  _129
REMARK   55  A    between atoms: _138  and  _140
REMARK   56  A    between atoms: _140  and  _141
REMARK   57  A    between atoms: _140  and  _143
REMARK   58  A    between atoms: _143  and  _144
REMARK   59  A    between atoms: _146  and  _148
REMARK   60  A    between atoms: _148  and  _149
REMARK   61  A    between atoms: _148  and  _151
REMARK   62  A    between atoms: _151  and  _152
REMARK   63  A    between atoms: _157  and  _159
REMARK   64  A    between atoms: _159  and  _160
REMARK   65  A    between atoms: _159  and  _162
REMARK   66  A    between atoms: _162  and  _163
REMARK   67  A    between atoms: _163  and  _164
REMARK   68  A    between atoms: _167  and  _169
REMARK   69  A    between atoms: _169  and  _170
REMARK   70  A    between atoms: _169  and  _172
REMARK   71  A    between atoms: _172  and  _173
REMARK   72  A    between atoms: _173  and  _174
REMARK   73  A    between atoms: _174  and  _176
REMARK   74  A    between atoms: _176  and  MG_430
REMARK   75  A    between atoms: _177  and  _179
REMARK   76  A    between atoms: _179  and  _180
REMARK   77  A    between atoms: _179  and  _182
REMARK   78  A    between atoms: _182  and  _183
REMARK   79  A    between atoms: _188  and  _190
REMARK   80  A    between atoms: _190  and  _191
REMARK   81  A    between atoms: _193  and  _195
REMARK   82  A    between atoms: _195  and  _196
REMARK   83  A    between atoms: _195  and  _198
REMARK   84  A    between atoms: _198  and  _199
REMARK   85  A    between atoms: _202  and  _204
REMARK   86  A    between atoms: _204  and  _205
REMARK   87  A    between atoms: _204  and  _207
REMARK   88  A    between atoms: _207  and  _208
REMARK   89  A    between atoms: _208  and  _209
REMARK   90  A    between atoms: _209  and  _210
REMARK   91  A    between atoms: _210  and  MG_430
REMARK   92  A    between atoms: _212  and  _214
REMARK   93  A    between atoms: _214  and  _215
REMARK   94  A    between atoms: _214  and  _217
REMARK   95  A    between atoms: _217  and  _218
REMARK   96  A    between atoms: _218  and  _219
REMARK   97  A    between atoms: _222  and  _224
REMARK   98  A    between atoms: _224  and  _225
REMARK   99  A    between atoms: _224  and  _227
REMARK  100  A    between atoms: _227  and  _228
REMARK  101  A    between atoms: _228  and  _229
REMARK  102  A    between atoms: _231  and  _233
REMARK  103  A    between atoms: _233  and  _234
REMARK  104  A    between atoms: _233  and  _236
REMARK  105  A    between atoms: _236  and  _237
REMARK  106  A    between atoms: _242  and  _243
REMARK  107  A    between atoms: _245  and  _247
REMARK  108  A    between atoms: _247  and  _248
REMARK  109  A    between atoms: _247  and  _250
REMARK  110  A    between atoms: _250  and  _251
REMARK  111  A    between atoms: _251  and  _252
REMARK  112  A    between atoms: _252  and  _253
REMARK  113  A    between atoms: _253  and  _254
REMARK  114  A    between atoms: _258  and  _260
REMARK  115  A    between atoms: _260  and  _261
REMARK  116  A    between atoms: _260  and  _263
REMARK  117  A    between atoms: _265  and  _267
REMARK  118  A    between atoms: _267  and  _268
REMARK  119  A    between atoms: _267  and  _270
REMARK  120  A    between atoms: _270  and  _271
REMARK  121  A    between atoms: _271  and  _272
REMARK  122  A    between atoms: _275  and  _277
REMARK  123  A    between atoms: _277  and  _278
REMARK  124  A    between atoms: _277  and  _280
REMARK  125  A    between atoms: _280  and  _281
REMARK  126  A    between atoms: _286  and  _288
REMARK  127  A    between atoms: _288  and  _289
REMARK  128  A    between atoms: _292  and  _294
REMARK  129  A    between atoms: _294  and  _295
REMARK  130  A    between atoms: _294  and  _297
REMARK  131  A    between atoms: _297  and  _298
REMARK  132  A    between atoms: _298  and  _299
REMARK  133  A    between atoms: _301  and  _303
REMARK  134  A    between atoms: _303  and  _304
REMARK  135  A    between atoms: _303  and  _306
REMARK  136  A    between atoms: _306  and  _307
REMARK  137  A    between atoms: _317  and  _319
REMARK  138  A    between atoms: _319  and  _320
REMARK  139  A    between atoms: _319  and  _322
REMARK  140  A    between atoms: _322  and  _323
REMARK  141  A    between atoms: _326  and  _328
REMARK  142  A    between atoms: _328  and  _329
REMARK  143  A    between atoms: _328  and  _331
REMARK  144  A    between atoms: _331  and  _332
REMARK  145  A    between atoms: _332  and  _333
REMARK  146  A    between atoms: _338  and  _340
REMARK  147  A    between atoms: _340  and  _341
REMARK  148  A    between atoms: _340  and  _343
REMARK  149  A    between atoms: _343  and  _344
REMARK  150  A    between atoms: _344  and  _345
REMARK  151  A    between atoms: _350  and  _352
REMARK  152  A    between atoms: _352  and  _353
REMARK  153  A    between atoms: _352  and  _355
REMARK  154  A    between atoms: _355  and  _356
REMARK  155  A    between atoms: _362  and  _364
REMARK  156  A    between atoms: _364  and  _365
REMARK  157  A    between atoms: _364  and  _367
REMARK  158  A    between atoms: _369  and  _371
REMARK  159  A    between atoms: _371  and  _372
REMARK  160  A    between atoms: _371  and  _374
REMARK  161  A    between atoms: _374  and  _375
REMARK  162  A    between atoms: _375  and  _376
REMARK  163  A    between atoms: _378  and  _380
REMARK  164  A    between atoms: _380  and  _381
REMARK  165  A    between atoms: _380  and  _383
REMARK  166  A    between atoms: _383  and  _384
REMARK  167  A    between atoms: _384  and  _385
REMARK  168  A    between atoms: _384  and  _386
REMARK  169  A    between atoms: _389  and  _391
REMARK  170  A    between atoms: _391  and  _392
REMARK  171  A    between atoms: _391  and  _394
REMARK  172  A    between atoms: _394  and  _395
REMARK  173  A    between atoms: _397  and  _399
REMARK  174  A    between atoms: _399  and  _400
REMARK  175  A    between atoms: _399  and  _402
REMARK  176  A    between atoms: _402  and  _403
REMARK  177  A    between atoms: _406  and  _408
REMARK  178  A    between atoms: _408  and  _409
REMARK  179  A    between atoms: _408  and  _411
REMARK  180  A    between atoms: _411  and  _412
REMARK  181  A    between atoms: _414  and  _416
REMARK  182  A    between atoms: _416  and  _417
REMARK  183  A    between atoms: _416  and  _419
REMARK  184  A    between atoms: _419  and  _420
REMARK                            x       y       z     vdW  Elec       q    Type
REMARK                         _______ _______ _______ _____ _____    ______ ____
ROOT
ATOM      1  O   HOH     1      -7.108 -31.073 -34.597  0.00  0.00    +0.000 OA
ENDROOT
TORSDOF 0
REMARK  Name = ../refined-set-2016/3vdb/3vdb_pocket.pdb
REMARK  184 active torsions:
REMARK  status: ('A' for Active; 'I' for Inactive)
REMARK    1  A    between atoms: _1  and  _3
REMARK    2  A    between atoms: _3  and  _4
REMARK    3  A    between atoms: _3  and  _6
REMARK    4  A    between atoms: _6  and  _7
REMARK    5  A    between atoms: _12  and  _13
REMARK    6  A    between atoms: _15  and  _17
REMARK    7  A    between atoms: _17  and  _18
REMARK    8  A    between atoms: _17  and  _20
REMARK    9  A    between atoms: _20  and  _21
REMARK   10  A    between atoms: _24  and  _26
REMARK   11  A    between atoms: _26  and  _27
REMARK   12  A    between atoms: _26  and  _29
REMARK   13  A    between atoms: _29  and  _30
REMARK   14  A    between atoms: _35  and  _37
REMARK   15  A    between atoms: _37  and  _38
REMARK   16  A    between atoms: _37  and  _40
REMARK   17  A    between atoms: _43  and  _45
REMARK   18  A    between atoms: _45  and  _46
REMARK   19  A    between atoms: _45  and  _48
REMARK   20  A    between atoms: _48  and  _49
REMARK   21  A    between atoms: _52  and  _54
REMARK   22  A    between atoms: _54  and  _55
REMARK   23  A    between atoms: _54  and  _57
REMARK   24  A    between atoms: _57  and  _58
REMARK   25  A    between atoms: _58  and  _59
REMARK   26  A    between atoms: _64  and  _66
REMARK   27  A    between atoms: _66  and  _67
REMARK   28  A    between atoms: _66  and  _69
REMARK   29  A    between atoms: _69  and  _70
REMARK   30  A    between atoms: _73  and  _75
REMARK   31  A    between atoms: _75  and  _76
REMARK   32  A    between atoms: _75  and  _78
REMARK   33  A    between atoms: _78  and  _79
REMARK   34  A    between atoms: _79  and  _80
REMARK   35  A    between atoms: _82  and  _84
REMARK   36  A    between atoms: _84  and  _85
REMARK   37  A    between atoms: _84  and  _87
REMARK   38  A    between atoms: _87  and  _88
REMARK   39  A    between atoms: _88  and  _89
REMARK   40  A    between atoms: _89  and  _90
REMARK   41  A    between atoms: _99  and  _101
REMARK   42  A    between atoms: _101  and  _102
REMARK   43  A    between atoms: _101  and  _104
REMARK   44  A    between atoms: _104  and  _105
REMARK   45  A    between atoms: _110  and  _112
REMARK   46  A    between atoms: _112  and  _113
REMARK   47  A    between atoms: _112  and  _115
REMARK   48  A    between atoms: _115  and  _116
REMARK   49  A    between atoms: _121  and  _123
REMARK   50  A    between atoms: _123  and  _124
REMARK   51  A    between atoms: _123  and  _126
REMARK   52  A    between atoms: _126  and  _127
REMARK   53  A    between atoms: _127  and  _128
REMARK   54  A    between atoms: _128  and  _129
REMARK   55  A    between atoms: _138  and  _140
REMARK   56  A    between atoms: _140  and  _141
REMARK   57  A    between atoms: _140  and  _143
REMARK   58  A    between atoms: _143  and  _144
REMARK   59  A    between atoms: _146  and  _148
REMARK   60  A    between atoms: _148  and  _149
REMARK   61  A    between atoms: _148  and  _151
REMARK   62  A    between atoms: _151  and  _152
REMARK   63  A    between atoms: _157  and  _159
REMARK   64  A    between atoms: _159  and  _160
REMARK   65  A    between atoms: _159  and  _162
REMARK   66  A    between atoms: _162  and  _163
REMARK   67  A    between atoms: _163  and  _164
REMARK   68  A    between atoms: _167  and  _169
REMARK   69  A    between atoms: _169  and  _170
REMARK   70  A    between atoms: _169  and  _172
REMARK   71  A    between atoms: _172  and  _173
REMARK   72  A    between atoms: _173  and  _174
REMARK   73  A    between atoms: _174  and  _176
REMARK   74  A    between atoms: _176  and  MG_430
REMARK   75  A    between atoms: _177  and  _179
REMARK   76  A    between atoms: _179  and  _180
REMARK   77  A    between atoms: _179  and  _182
REMARK   78  A    between atoms: _182  and  _183
REMARK   79  A    between atoms: _188  and  _190
REMARK   80  A    between atoms: _190  and  _191
REMARK   81  A    between atoms: _193  and  _195
REMARK   82  A    between atoms: _195  and  _196
REMARK   83  A    between atoms: _195  and  _198
REMARK   84  A    between atoms: _198  and  _199
REMARK   85  A    between atoms: _202  and  _204
REMARK   86  A    between atoms: _204  and  _205
REMARK   87  A    between atoms: _204  and  _207
REMARK   88  A    between atoms: _207  and  _208
REMARK   89  A    between atoms: _208  and  _209
REMARK   90  A    between atoms: _209  and  _210
REMARK   91  A    between atoms: _210  and  MG_430
REMARK   92  A    between atoms: _212  and  _214
REMARK   93  A    between atoms: _214  and  _215
REMARK   94  A    between atoms: _214  and  _217
REMARK   95  A    between atoms: _217  and  _218
REMARK   96  A    between atoms: _218  and  _219
REMARK   97  A    between atoms: _222  and  _224
REMARK   98  A    between atoms: _224  and  _225
REMARK   99  A    between atoms: _224  and  _227
REMARK  100  A    between atoms: _227  and  _228
REMARK  101  A    between atoms: _228  and  _229
REMARK  102  A    between atoms: _231  and  _233
REMARK  103  A    between atoms: _233  and  _234
REMARK  104  A    between atoms: _233  and  _236
REMARK  105  A    between atoms: _236  and  _237
REMARK  106  A    between atoms: _242  and  _243
REMARK  107  A    between atoms: _245  and  _247
REMARK  108  A    between atoms: _247  and  _248
REMARK  109  A    between atoms: _247  and  _250
REMARK  110  A    between atoms: _250  and  _251
REMARK  111  A    between atoms: _251  and  _252
REMARK  112  A    between atoms: _252  and  _253
REMARK  113  A    between atoms: _253  and  _254
REMARK  114  A    between atoms: _258  and  _260
REMARK  115  A    between atoms: _260  and  _261
REMARK  116  A    between atoms: _260  and  _263
REMARK  117  A    between atoms: _265  and  _267
REMARK  118  A    between atoms: _267  and  _268
REMARK  119  A    between atoms: _267  and  _270
REMARK  120  A    between atoms: _270  and  _271
REMARK  121  A    between atoms: _271  and  _272
REMARK  122  A    between atoms: _275  and  _277
REMARK  123  A    between atoms: _277  and  _278
REMARK  124  A    between atoms: _277  and  _280
REMARK  125  A    between atoms: _280  and  _281
REMARK  126  A    between atoms: _286  and  _288
REMARK  127  A    between atoms: _288  and  _289
REMARK  128  A    between atoms: _292  and  _294
REMARK  129  A    between atoms: _294  and  _295
REMARK  130  A    between atoms: _294  and  _297
REMARK  131  A    between atoms: _297  and  _298
REMARK  132  A    between atoms: _298  and  _299
REMARK  133  A    between atoms: _301  and  _303
REMARK  134  A    between atoms: _303  and  _304
REMARK  135  A    between atoms: _303  and  _306
REMARK  136  A    between atoms: _306  and  _307
REMARK  137  A    between atoms: _317  and  _319
REMARK  138  A    between atoms: _319  and  _320
REMARK  139  A    between atoms: _319  and  _322
REMARK  140  A    between atoms: _322  and  _323
REMARK  141  A    between atoms: _326  and  _328
REMARK  142  A    between atoms: _328  and  _329
REMARK  143  A    between atoms: _328  and  _331
REMARK  144  A    between atoms: _331  and  _332
REMARK  145  A    between atoms: _332  and  _333
REMARK  146  A    between atoms: _338  and  _340
REMARK  147  A    between atoms: _340  and  _341
REMARK  148  A    between atoms: _340  and  _343
REMARK  149  A    between atoms: _343  and  _344
REMARK  150  A    between atoms: _344  and  _345
REMARK  151  A    between atoms: _350  and  _352
REMARK  152  A    between atoms: _352  and  _353
REMARK  153  A    between atoms: _352  and  _355
REMARK  154  A    between atoms: _355  and  _356
REMARK  155  A    between atoms: _362  and  _364
REMARK  156  A    between atoms: _364  and  _365
REMARK  157  A    between atoms: _364  and  _367
REMARK  158  A    between atoms: _369  and  _371
REMARK  159  A    between atoms: _371  and  _372
REMARK  160  A    between atoms: _371  and  _374
REMARK  161  A    between atoms: _374  and  _375
REMARK  162  A    between atoms: _375  and  _376
REMARK  163  A    between atoms: _378  and  _380
REMARK  164  A    between atoms: _380  and  _381
REMARK  165  A    between atoms: _380  and  _383
REMARK  166  A    between atoms: _383  and  _384
REMARK  167  A    between atoms: _384  and  _385
REMARK  168  A    between atoms: _384  and  _386
REMARK  169  A    between atoms: _389  and  _391
REMARK  170  A    between atoms: _391  and  _392
REMARK  171  A    between atoms: _391  and  _394
REMARK  172  A    between atoms: _394  and  _395
REMARK  173  A    between atoms: _397  and  _399
REMARK  174  A    between atoms: _399  and  _400
REMARK  175  A    between atoms: _399  and  _402
REMARK  176  A    between atoms: _402  and  _403
REMARK  177  A    between atoms: _406  and  _408
REMARK  178  A    between atoms: _408  and  _409
REMARK  179  A    between atoms: _408  and  _411
REMARK  180  A    between atoms: _411  and  _412
REMARK  181  A    between atoms: _414  and  _416
REMARK  182  A    between atoms: _416  and  _417
REMARK  183  A    between atoms: _416  and  _419
REMARK  184  A    between atoms: _419  and  _420
REMARK                            x       y       z     vdW  Elec       q    Type
REMARK                         _______ _______ _______ _____ _____    ______ ____
ROOT
ATOM      1  O   HOH     1     -12.344 -25.241 -18.442  0.00  0.00    +0.000 OA
ENDROOT
TORSDOF 0
REMARK  Name = ../refined-set-2016/3vdb/3vdb_pocket.pdb
REMARK  184 active torsions:
REMARK  status: ('A' for Active; 'I' for Inactive)
REMARK    1  A    between atoms: _1  and  _3
REMARK    2  A    between atoms: _3  and  _4
REMARK    3  A    between atoms: _3  and  _6
REMARK    4  A    between atoms: _6  and  _7
REMARK    5  A    between atoms: _12  and  _13
REMARK    6  A    between atoms: _15  and  _17
REMARK    7  A    between atoms: _17  and  _18
REMARK    8  A    between atoms: _17  and  _20
REMARK    9  A    between atoms: _20  and  _21
REMARK   10  A    between atoms: _24  and  _26
REMARK   11  A    between atoms: _26  and  _27
REMARK   12  A    between atoms: _26  and  _29
REMARK   13  A    between atoms: _29  and  _30
REMARK   14  A    between atoms: _35  and  _37
REMARK   15  A    between atoms: _37  and  _38
REMARK   16  A    between atoms: _37  and  _40
REMARK   17  A    between atoms: _43  and  _45
REMARK   18  A    between atoms: _45  and  _46
REMARK   19  A    between atoms: _45  and  _48
REMARK   20  A    between atoms: _48  and  _49
REMARK   21  A    between atoms: _52  and  _54
REMARK   22  A    between atoms: _54  and  _55
REMARK   23  A    between atoms: _54  and  _57
REMARK   24  A    between atoms: _57  and  _58
REMARK   25  A    between atoms: _58  and  _59
REMARK   26  A    between atoms: _64  and  _66
REMARK   27  A    between atoms: _66  and  _67
REMARK   28  A    between atoms: _66  and  _69
REMARK   29  A    between atoms: _69  and  _70
REMARK   30  A    between atoms: _73  and  _75
REMARK   31  A    between atoms: _75  and  _76
REMARK   32  A    between atoms: _75  and  _78
REMARK   33  A    between atoms: _78  and  _79
REMARK   34  A    between atoms: _79  and  _80
REMARK   35  A    between atoms: _82  and  _84
REMARK   36  A    between atoms: _84  and  _85
REMARK   37  A    between atoms: _84  and  _87
REMARK   38  A    between atoms: _87  and  _88
REMARK   39  A    between atoms: _88  and  _89
REMARK   40  A    between atoms: _89  and  _90
REMARK   41  A    between atoms: _99  and  _101
REMARK   42  A    between atoms: _101  and  _102
REMARK   43  A    between atoms: _101  and  _104
REMARK   44  A    between atoms: _104  and  _105
REMARK   45  A    between atoms: _110  and  _112
REMARK   46  A    between atoms: _112  and  _113
REMARK   47  A    between atoms: _112  and  _115
REMARK   48  A    between atoms: _115  and  _116
REMARK   49  A    between atoms: _121  and  _123
REMARK   50  A    between atoms: _123  and  _124
REMARK   51  A    between atoms: _123  and  _126
REMARK   52  A    between atoms: _126  and  _127
REMARK   53  A    between atoms: _127  and  _128
REMARK   54  A    between atoms: _128  and  _129
REMARK   55  A    between atoms: _138  and  _140
REMARK   56  A    between atoms: _140  and  _141
REMARK   57  A    between atoms: _140  and  _143
REMARK   58  A    between atoms: _143  and  _144
REMARK   59  A    between atoms: _146  and  _148
REMARK   60  A    between atoms: _148  and  _149
REMARK   61  A    between atoms: _148  and  _151
REMARK   62  A    between atoms: _151  and  _152
REMARK   63  A    between atoms: _157  and  _159
REMARK   64  A    between atoms: _159  and  _160
REMARK   65  A    between atoms: _159  and  _162
REMARK   66  A    between atoms: _162  and  _163
REMARK   67  A    between atoms: _163  and  _164
REMARK   68  A    between atoms: _167  and  _169
REMARK   69  A    between atoms: _169  and  _170
REMARK   70  A    between atoms: _169  and  _172
REMARK   71  A    between atoms: _172  and  _173
REMARK   72  A    between atoms: _173  and  _174
REMARK   73  A    between atoms: _174  and  _176
REMARK   74  A    between atoms: _176  and  MG_430
REMARK   75  A    between atoms: _177  and  _179
REMARK   76  A    between atoms: _179  and  _180
REMARK   77  A    between atoms: _179  and  _182
REMARK   78  A    between atoms: _182  and  _183
REMARK   79  A    between atoms: _188  and  _190
REMARK   80  A    between atoms: _190  and  _191
REMARK   81  A    between atoms: _193  and  _195
REMARK   82  A    between atoms: _195  and  _196
REMARK   83  A    between atoms: _195  and  _198
REMARK   84  A    between atoms: _198  and  _199
REMARK   85  A    between atoms: _202  and  _204
REMARK   86  A    between atoms: _204  and  _205
REMARK   87  A    between atoms: _204  and  _207
REMARK   88  A    between atoms: _207  and  _208
REMARK   89  A    between atoms: _208  and  _209
REMARK   90  A    between atoms: _209  and  _210
REMARK   91  A    between atoms: _210  and  MG_430
REMARK   92  A    between atoms: _212  and  _214
REMARK   93  A    between atoms: _214  and  _215
REMARK   94  A    between atoms: _214  and  _217
REMARK   95  A    between atoms: _217  and  _218
REMARK   96  A    between atoms: _218  and  _219
REMARK   97  A    between atoms: _222  and  _224
REMARK   98  A    between atoms: _224  and  _225
REMARK   99  A    between atoms: _224  and  _227
REMARK  100  A    between atoms: _227  and  _228
REMARK  101  A    between atoms: _228  and  _229
REMARK  102  A    between atoms: _231  and  _233
REMARK  103  A    between atoms: _233  and  _234
REMARK  104  A    between atoms: _233  and  _236
REMARK  105  A    between atoms: _236  and  _237
REMARK  106  A    between atoms: _242  and  _243
REMARK  107  A    between atoms: _245  and  _247
REMARK  108  A    between atoms: _247  and  _248
REMARK  109  A    between atoms: _247  and  _250
REMARK  110  A    between atoms: _250  and  _251
REMARK  111  A    between atoms: _251  and  _252
REMARK  112  A    between atoms: _252  and  _253
REMARK  113  A    between atoms: _253  and  _254
REMARK  114  A    between atoms: _258  and  _260
REMARK  115  A    between atoms: _260  and  _261
REMARK  116  A    between atoms: _260  and  _263
REMARK  117  A    between atoms: _265  and  _267
REMARK  118  A    between atoms: _267  and  _268
REMARK  119  A    between atoms: _267  and  _270
REMARK  120  A    between atoms: _270  and  _271
REMARK  121  A    between atoms: _271  and  _272
REMARK  122  A    between atoms: _275  and  _277
REMARK  123  A    between atoms: _277  and  _278
REMARK  124  A    between atoms: _277  and  _280
REMARK  125  A    between atoms: _280  and  _281
REMARK  126  A    between atoms: _286  and  _288
REMARK  127  A    between atoms: _288  and  _289
REMARK  128  A    between atoms: _292  and  _294
REMARK  129  A    between atoms: _294  and  _295
REMARK  130  A    between atoms: _294  and  _297
REMARK  131  A    between atoms: _297  and  _298
REMARK  132  A    between atoms: _298  and  _299
REMARK  133  A    between atoms: _301  and  _303
REMARK  134  A    between atoms: _303  and  _304
REMARK  135  A    between atoms: _303  and  _306
REMARK  136  A    between atoms: _306  and  _307
REMARK  137  A    between atoms: _317  and  _319
REMARK  138  A    between atoms: _319  and  _320
REMARK  139  A    between atoms: _319  and  _322
REMARK  140  A    between atoms: _322  and  _323
REMARK  141  A    between atoms: _326  and  _328
REMARK  142  A    between atoms: _328  and  _329
REMARK  143  A    between atoms: _328  and  _331
REMARK  144  A    between atoms: _331  and  _332
REMARK  145  A    between atoms: _332  and  _333
REMARK  146  A    between atoms: _338  and  _340
REMARK  147  A    between atoms: _340  and  _341
REMARK  148  A    between atoms: _340  and  _343
REMARK  149  A    between atoms: _343  and  _344
REMARK  150  A    between atoms: _344  and  _345
REMARK  151  A    between atoms: _350  and  _352
REMARK  152  A    between atoms: _352  and  _353
REMARK  153  A    between atoms: _352  and  _355
REMARK  154  A    between atoms: _355  and  _356
REMARK  155  A    between atoms: _362  and  _364
REMARK  156  A    between atoms: _364  and  _365
REMARK  157  A    between atoms: _364  and  _367
REMARK  158  A    between atoms: _369  and  _371
REMARK  159  A    between atoms: _371  and  _372
REMARK  160  A    between atoms: _371  and  _374
REMARK  161  A    between atoms: _374  and  _375
REMARK  162  A    between atoms: _375  and  _376
REMARK  163  A    between atoms: _378  and  _380
REMARK  164  A    between atoms: _380  and  _381
REMARK  165  A    between atoms: _380  and  _383
REMARK  166  A    between atoms: _383  and  _384
REMARK  167  A    between atoms: _384  and  _385
REMARK  168  A    between atoms: _384  and  _386
REMARK  169  A    between atoms: _389  and  _391
REMARK  170  A    between atoms: _391  and  _392
REMARK  171  A    between atoms: _391  and  _394
REMARK  172  A    between atoms: _394  and  _395
REMARK  173  A    between atoms: _397  and  _399
REMARK  174  A    between atoms: _399  and  _400
REMARK  175  A    between atoms: _399  and  _402
REMARK  176  A    between atoms: _402  and  _403
REMARK  177  A    between atoms: _406  and  _408
REMARK  178  A    between atoms: _408  and  _409
REMARK  179  A    between atoms: _408  and  _411
REMARK  180  A    between atoms: _411  and  _412
REMARK  181  A    between atoms: _414  and  _416
REMARK  182  A    between atoms: _416  and  _417
REMARK  183  A    between atoms: _416  and  _419
REMARK  184  A    between atoms: _419  and  _420
REMARK                            x       y       z     vdW  Elec       q    Type
REMARK                         _______ _______ _______ _____ _____    ______ ____
ROOT
ATOM      1  O   HOH     1      -8.660 -25.186 -19.215  0.00  0.00    +0.000 OA
ENDROOT
TORSDOF 0
REMARK  Name = ../refined-set-2016/3vdb/3vdb_pocket.pdb
REMARK  184 active torsions:
REMARK  status: ('A' for Active; 'I' for Inactive)
REMARK    1  A    between atoms: _1  and  _3
REMARK    2  A    between atoms: _3  and  _4
REMARK    3  A    between atoms: _3  and  _6
REMARK    4  A    between atoms: _6  and  _7
REMARK    5  A    between atoms: _12  and  _13
REMARK    6  A    between atoms: _15  and  _17
REMARK    7  A    between atoms: _17  and  _18
REMARK    8  A    between atoms: _17  and  _20
REMARK    9  A    between atoms: _20  and  _21
REMARK   10  A    between atoms: _24  and  _26
REMARK   11  A    between atoms: _26  and  _27
REMARK   12  A    between atoms: _26  and  _29
REMARK   13  A    between atoms: _29  and  _30
REMARK   14  A    between atoms: _35  and  _37
REMARK   15  A    between atoms: _37  and  _38
REMARK   16  A    between atoms: _37  and  _40
REMARK   17  A    between atoms: _43  and  _45
REMARK   18  A    between atoms: _45  and  _46
REMARK   19  A    between atoms: _45  and  _48
REMARK   20  A    between atoms: _48  and  _49
REMARK   21  A    between atoms: _52  and  _54
REMARK   22  A    between atoms: _54  and  _55
REMARK   23  A    between atoms: _54  and  _57
REMARK   24  A    between atoms: _57  and  _58
REMARK   25  A    between atoms: _58  and  _59
REMARK   26  A    between atoms: _64  and  _66
REMARK   27  A    between atoms: _66  and  _67
REMARK   28  A    between atoms: _66  and  _69
REMARK   29  A    between atoms: _69  and  _70
REMARK   30  A    between atoms: _73  and  _75
REMARK   31  A    between atoms: _75  and  _76
REMARK   32  A    between atoms: _75  and  _78
REMARK   33  A    between atoms: _78  and  _79
REMARK   34  A    between atoms: _79  and  _80
REMARK   35  A    between atoms: _82  and  _84
REMARK   36  A    between atoms: _84  and  _85
REMARK   37  A    between atoms: _84  and  _87
REMARK   38  A    between atoms: _87  and  _88
REMARK   39  A    between atoms: _88  and  _89
REMARK   40  A    between atoms: _89  and  _90
REMARK   41  A    between atoms: _99  and  _101
REMARK   42  A    between atoms: _101  and  _102
REMARK   43  A    between atoms: _101  and  _104
REMARK   44  A    between atoms: _104  and  _105
REMARK   45  A    between atoms: _110  and  _112
REMARK   46  A    between atoms: _112  and  _113
REMARK   47  A    between atoms: _112  and  _115
REMARK   48  A    between atoms: _115  and  _116
REMARK   49  A    between atoms: _121  and  _123
REMARK   50  A    between atoms: _123  and  _124
REMARK   51  A    between atoms: _123  and  _126
REMARK   52  A    between atoms: _126  and  _127
REMARK   53  A    between atoms: _127  and  _128
REMARK   54  A    between atoms: _128  and  _129
REMARK   55  A    between atoms: _138  and  _140
REMARK   56  A    between atoms: _140  and  _141
REMARK   57  A    between atoms: _140  and  _143
REMARK   58  A    between atoms: _143  and  _144
REMARK   59  A    between atoms: _146  and  _148
REMARK   60  A    between atoms: _148  and  _149
REMARK   61  A    between atoms: _148  and  _151
REMARK   62  A    between atoms: _151  and  _152
REMARK   63  A    between atoms: _157  and  _159
REMARK   64  A    between atoms: _159  and  _160
REMARK   65  A    between atoms: _159  and  _162
REMARK   66  A    between atoms: _162  and  _163
REMARK   67  A    between atoms: _163  and  _164
REMARK   68  A    between atoms: _167  and  _169
REMARK   69  A    between atoms: _169  and  _170
REMARK   70  A    between atoms: _169  and  _172
REMARK   71  A    between atoms: _172  and  _173
REMARK   72  A    between atoms: _173  and  _174
REMARK   73  A    between atoms: _174  and  _176
REMARK   74  A    between atoms: _176  and  MG_430
REMARK   75  A    between atoms: _177  and  _179
REMARK   76  A    between atoms: _179  and  _180
REMARK   77  A    between atoms: _179  and  _182
REMARK   78  A    between atoms: _182  and  _183
REMARK   79  A    between atoms: _188  and  _190
REMARK   80  A    between atoms: _190  and  _191
REMARK   81  A    between atoms: _193  and  _195
REMARK   82  A    between atoms: _195  and  _196
REMARK   83  A    between atoms: _195  and  _198
REMARK   84  A    between atoms: _198  and  _199
REMARK   85  A    between atoms: _202  and  _204
REMARK   86  A    between atoms: _204  and  _205
REMARK   87  A    between atoms: _204  and  _207
REMARK   88  A    between atoms: _207  and  _208
REMARK   89  A    between atoms: _208  and  _209
REMARK   90  A    between atoms: _209  and  _210
REMARK   91  A    between atoms: _210  and  MG_430
REMARK   92  A    between atoms: _212  and  _214
REMARK   93  A    between atoms: _214  and  _215
REMARK   94  A    between atoms: _214  and  _217
REMARK   95  A    between atoms: _217  and  _218
REMARK   96  A    between atoms: _218  and  _219
REMARK   97  A    between atoms: _222  and  _224
REMARK   98  A    between atoms: _224  and  _225
REMARK   99  A    between atoms: _224  and  _227
REMARK  100  A    between atoms: _227  and  _228
REMARK  101  A    between atoms: _228  and  _229
REMARK  102  A    between atoms: _231  and  _233
REMARK  103  A    between atoms: _233  and  _234
REMARK  104  A    between atoms: _233  and  _236
REMARK  105  A    between atoms: _236  and  _237
REMARK  106  A    between atoms: _242  and  _243
REMARK  107  A    between atoms: _245  and  _247
REMARK  108  A    between atoms: _247  and  _248
REMARK  109  A    between atoms: _247  and  _250
REMARK  110  A    between atoms: _250  and  _251
REMARK  111  A    between atoms: _251  and  _252
REMARK  112  A    between atoms: _252  and  _253
REMARK  113  A    between atoms: _253  and  _254
REMARK  114  A    between atoms: _258  and  _260
REMARK  115  A    between atoms: _260  and  _261
REMARK  116  A    between atoms: _260  and  _263
REMARK  117  A    between atoms: _265  and  _267
REMARK  118  A    between atoms: _267  and  _268
REMARK  119  A    between atoms: _267  and  _270
REMARK  120  A    between atoms: _270  and  _271
REMARK  121  A    between atoms: _271  and  _272
REMARK  122  A    between atoms: _275  and  _277
REMARK  123  A    between atoms: _277  and  _278
REMARK  124  A    between atoms: _277  and  _280
REMARK  125  A    between atoms: _280  and  _281
REMARK  126  A    between atoms: _286  and  _288
REMARK  127  A    between atoms: _288  and  _289
REMARK  128  A    between atoms: _292  and  _294
REMARK  129  A    between atoms: _294  and  _295
REMARK  130  A    between atoms: _294  and  _297
REMARK  131  A    between atoms: _297  and  _298
REMARK  132  A    between atoms: _298  and  _299
REMARK  133  A    between atoms: _301  and  _303
REMARK  134  A    between atoms: _303  and  _304
REMARK  135  A    between atoms: _303  and  _306
REMARK  136  A    between atoms: _306  and  _307
REMARK  137  A    between atoms: _317  and  _319
REMARK  138  A    between atoms: _319  and  _320
REMARK  139  A    between atoms: _319  and  _322
REMARK  140  A    between atoms: _322  and  _323
REMARK  141  A    between atoms: _326  and  _328
REMARK  142  A    between atoms: _328  and  _329
REMARK  143  A    between atoms: _328  and  _331
REMARK  144  A    between atoms: _331  and  _332
REMARK  145  A    between atoms: _332  and  _333
REMARK  146  A    between atoms: _338  and  _340
REMARK  147  A    between atoms: _340  and  _341
REMARK  148  A    between atoms: _340  and  _343
REMARK  149  A    between atoms: _343  and  _344
REMARK  150  A    between atoms: _344  and  _345
REMARK  151  A    between atoms: _350  and  _352
REMARK  152  A    between atoms: _352  and  _353
REMARK  153  A    between atoms: _352  and  _355
REMARK  154  A    between atoms: _355  and  _356
REMARK  155  A    between atoms: _362  and  _364
REMARK  156  A    between atoms: _364  and  _365
REMARK  157  A    between atoms: _364  and  _367
REMARK  158  A    between atoms: _369  and  _371
REMARK  159  A    between atoms: _371  and  _372
REMARK  160  A    between atoms: _371  and  _374
REMARK  161  A    between atoms: _374  and  _375
REMARK  162  A    between atoms: _375  and  _376
REMARK  163  A    between atoms: _378  and  _380
REMARK  164  A    between atoms: _380  and  _381
REMARK  165  A    between atoms: _380  and  _383
REMARK  166  A    between atoms: _383  and  _384
REMARK  167  A    between atoms: _384  and  _385
REMARK  168  A    between atoms: _384  and  _386
REMARK  169  A    between atoms: _389  and  _391
REMARK  170  A    between atoms: _391  and  _392
REMARK  171  A    between atoms: _391  and  _394
REMARK  172  A    between atoms: _394  and  _395
REMARK  173  A    between atoms: _397  and  _399
REMARK  174  A    between atoms: _399  and  _400
REMARK  175  A    between atoms: _399  and  _402
REMARK  176  A    between atoms: _402  and  _403
REMARK  177  A    between atoms: _406  and  _408
REMARK  178  A    between atoms: _408  and  _409
REMARK  179  A    between atoms: _408  and  _411
REMARK  180  A    between atoms: _411  and  _412
REMARK  181  A    between atoms: _414  and  _416
REMARK  182  A    between atoms: _416  and  _417
REMARK  183  A    between atoms: _416  and  _419
REMARK  184  A    between atoms: _419  and  _420
REMARK                            x       y       z     vdW  Elec       q    Type
REMARK                         _______ _______ _______ _____ _____    ______ ____
ROOT
ATOM      1  O   HOH     1      -7.495 -31.719 -32.020  0.00  0.00    +0.000 OA
ENDROOT
TORSDOF 0
REMARK  Name = ../refined-set-2016/3vdb/3vdb_pocket.pdb
REMARK  184 active torsions:
REMARK  status: ('A' for Active; 'I' for Inactive)
REMARK    1  A    between atoms: _1  and  _3
REMARK    2  A    between atoms: _3  and  _4
REMARK    3  A    between atoms: _3  and  _6
REMARK    4  A    between atoms: _6  and  _7
REMARK    5  A    between atoms: _12  and  _13
REMARK    6  A    between atoms: _15  and  _17
REMARK    7  A    between atoms: _17  and  _18
REMARK    8  A    between atoms: _17  and  _20
REMARK    9  A    between atoms: _20  and  _21
REMARK   10  A    between atoms: _24  and  _26
REMARK   11  A    between atoms: _26  and  _27
REMARK   12  A    between atoms: _26  and  _29
REMARK   13  A    between atoms: _29  and  _30
REMARK   14  A    between atoms: _35  and  _37
REMARK   15  A    between atoms: _37  and  _38
REMARK   16  A    between atoms: _37  and  _40
REMARK   17  A    between atoms: _43  and  _45
REMARK   18  A    between atoms: _45  and  _46
REMARK   19  A    between atoms: _45  and  _48
REMARK   20  A    between atoms: _48  and  _49
REMARK   21  A    between atoms: _52  and  _54
REMARK   22  A    between atoms: _54  and  _55
REMARK   23  A    between atoms: _54  and  _57
REMARK   24  A    between atoms: _57  and  _58
REMARK   25  A    between atoms: _58  and  _59
REMARK   26  A    between atoms: _64  and  _66
REMARK   27  A    between atoms: _66  and  _67
REMARK   28  A    between atoms: _66  and  _69
REMARK   29  A    between atoms: _69  and  _70
REMARK   30  A    between atoms: _73  and  _75
REMARK   31  A    between atoms: _75  and  _76
REMARK   32  A    between atoms: _75  and  _78
REMARK   33  A    between atoms: _78  and  _79
REMARK   34  A    between atoms: _79  and  _80
REMARK   35  A    between atoms: _82  and  _84
REMARK   36  A    between atoms: _84  and  _85
REMARK   37  A    between atoms: _84  and  _87
REMARK   38  A    between atoms: _87  and  _88
REMARK   39  A    between atoms: _88  and  _89
REMARK   40  A    between atoms: _89  and  _90
REMARK   41  A    between atoms: _99  and  _101
REMARK   42  A    between atoms: _101  and  _102
REMARK   43  A    between atoms: _101  and  _104
REMARK   44  A    between atoms: _104  and  _105
REMARK   45  A    between atoms: _110  and  _112
REMARK   46  A    between atoms: _112  and  _113
REMARK   47  A    between atoms: _112  and  _115
REMARK   48  A    between atoms: _115  and  _116
REMARK   49  A    between atoms: _121  and  _123
REMARK   50  A    between atoms: _123  and  _124
REMARK   51  A    between atoms: _123  and  _126
REMARK   52  A    between atoms: _126  and  _127
REMARK   53  A    between atoms: _127  and  _128
REMARK   54  A    between atoms: _128  and  _129
REMARK   55  A    between atoms: _138  and  _140
REMARK   56  A    between atoms: _140  and  _141
REMARK   57  A    between atoms: _140  and  _143
REMARK   58  A    between atoms: _143  and  _144
REMARK   59  A    between atoms: _146  and  _148
REMARK   60  A    between atoms: _148  and  _149
REMARK   61  A    between atoms: _148  and  _151
REMARK   62  A    between atoms: _151  and  _152
REMARK   63  A    between atoms: _157  and  _159
REMARK   64  A    between atoms: _159  and  _160
REMARK   65  A    between atoms: _159  and  _162
REMARK   66  A    between atoms: _162  and  _163
REMARK   67  A    between atoms: _163  and  _164
REMARK   68  A    between atoms: _167  and  _169
REMARK   69  A    between atoms: _169  and  _170
REMARK   70  A    between atoms: _169  and  _172
REMARK   71  A    between atoms: _172  and  _173
REMARK   72  A    between atoms: _173  and  _174
REMARK   73  A    between atoms: _174  and  _176
REMARK   74  A    between atoms: _176  and  MG_430
REMARK   75  A    between atoms: _177  and  _179
REMARK   76  A    between atoms: _179  and  _180
REMARK   77  A    between atoms: _179  and  _182
REMARK   78  A    between atoms: _182  and  _183
REMARK   79  A    between atoms: _188  and  _190
REMARK   80  A    between atoms: _190  and  _191
REMARK   81  A    between atoms: _193  and  _195
REMARK   82  A    between atoms: _195  and  _196
REMARK   83  A    between atoms: _195  and  _198
REMARK   84  A    between atoms: _198  and  _199
REMARK   85  A    between atoms: _202  and  _204
REMARK   86  A    between atoms: _204  and  _205
REMARK   87  A    between atoms: _204  and  _207
REMARK   88  A    between atoms: _207  and  _208
REMARK   89  A    between atoms: _208  and  _209
REMARK   90  A    between atoms: _209  and  _210
REMARK   91  A    between atoms: _210  and  MG_430
REMARK   92  A    between atoms: _212  and  _214
REMARK   93  A    between atoms: _214  and  _215
REMARK   94  A    between atoms: _214  and  _217
REMARK   95  A    between atoms: _217  and  _218
REMARK   96  A    between atoms: _218  and  _219
REMARK   97  A    between atoms: _222  and  _224
REMARK   98  A    between atoms: _224  and  _225
REMARK   99  A    between atoms: _224  and  _227
REMARK  100  A    between atoms: _227  and  _228
REMARK  101  A    between atoms: _228  and  _229
REMARK  102  A    between atoms: _231  and  _233
REMARK  103  A    between atoms: _233  and  _234
REMARK  104  A    between atoms: _233  and  _236
REMARK  105  A    between atoms: _236  and  _237
REMARK  106  A    between atoms: _242  and  _243
REMARK  107  A    between atoms: _245  and  _247
REMARK  108  A    between atoms: _247  and  _248
REMARK  109  A    between atoms: _247  and  _250
REMARK  110  A    between atoms: _250  and  _251
REMARK  111  A    between atoms: _251  and  _252
REMARK  112  A    between atoms: _252  and  _253
REMARK  113  A    between atoms: _253  and  _254
REMARK  114  A    between atoms: _258  and  _260
REMARK  115  A    between atoms: _260  and  _261
REMARK  116  A    between atoms: _260  and  _263
REMARK  117  A    between atoms: _265  and  _267
REMARK  118  A    between atoms: _267  and  _268
REMARK  119  A    between atoms: _267  and  _270
REMARK  120  A    between atoms: _270  and  _271
REMARK  121  A    between atoms: _271  and  _272
REMARK  122  A    between atoms: _275  and  _277
REMARK  123  A    between atoms: _277  and  _278
REMARK  124  A    between atoms: _277  and  _280
REMARK  125  A    between atoms: _280  and  _281
REMARK  126  A    between atoms: _286  and  _288
REMARK  127  A    between atoms: _288  and  _289
REMARK  128  A    between atoms: _292  and  _294
REMARK  129  A    between atoms: _294  and  _295
REMARK  130  A    between atoms: _294  and  _297
REMARK  131  A    between atoms: _297  and  _298
REMARK  132  A    between atoms: _298  and  _299
REMARK  133  A    between atoms: _301  and  _303
REMARK  134  A    between atoms: _303  and  _304
REMARK  135  A    between atoms: _303  and  _306
REMARK  136  A    between atoms: _306  and  _307
REMARK  137  A    between atoms: _317  and  _319
REMARK  138  A    between atoms: _319  and  _320
REMARK  139  A    between atoms: _319  and  _322
REMARK  140  A    between atoms: _322  and  _323
REMARK  141  A    between atoms: _326  and  _328
REMARK  142  A    between atoms: _328  and  _329
REMARK  143  A    between atoms: _328  and  _331
REMARK  144  A    between atoms: _331  and  _332
REMARK  145  A    between atoms: _332  and  _333
REMARK  146  A    between atoms: _338  and  _340
REMARK  147  A    between atoms: _340  and  _341
REMARK  148  A    between atoms: _340  and  _343
REMARK  149  A    between atoms: _343  and  _344
REMARK  150  A    between atoms: _344  and  _345
REMARK  151  A    between atoms: _350  and  _352
REMARK  152  A    between atoms: _352  and  _353
REMARK  153  A    between atoms: _352  and  _355
REMARK  154  A    between atoms: _355  and  _356
REMARK  155  A    between atoms: _362  and  _364
REMARK  156  A    between atoms: _364  and  _365
REMARK  157  A    between atoms: _364  and  _367
REMARK  158  A    between atoms: _369  and  _371
REMARK  159  A    between atoms: _371  and  _372
REMARK  160  A    between atoms: _371  and  _374
REMARK  161  A    between atoms: _374  and  _375
REMARK  162  A    between atoms: _375  and  _376
REMARK  163  A    between atoms: _378  and  _380
REMARK  164  A    between atoms: _380  and  _381
REMARK  165  A    between atoms: _380  and  _383
REMARK  166  A    between atoms: _383  and  _384
REMARK  167  A    between atoms: _384  and  _385
REMARK  168  A    between atoms: _384  and  _386
REMARK  169  A    between atoms: _389  and  _391
REMARK  170  A    between atoms: _391  and  _392
REMARK  171  A    between atoms: _391  and  _394
REMARK  172  A    between atoms: _394  and  _395
REMARK  173  A    between atoms: _397  and  _399
REMARK  174  A    between atoms: _399  and  _400
REMARK  175  A    between atoms: _399  and  _402
REMARK  176  A    between atoms: _402  and  _403
REMARK  177  A    between atoms: _406  and  _408
REMARK  178  A    between atoms: _408  and  _409
REMARK  179  A    between atoms: _408  and  _411
REMARK  180  A    between atoms: _411  and  _412
REMARK  181  A    between atoms: _414  and  _416
REMARK  182  A    between atoms: _416  and  _417
REMARK  183  A    between atoms: _416  and  _419
REMARK  184  A    between atoms: _419  and  _420
REMARK                            x       y       z     vdW  Elec       q    Type
REMARK                         _______ _______ _______ _____ _____    ______ ____
ROOT
ATOM      1  O   HOH     1     -12.335 -19.480 -20.717  0.00  0.00    +0.000 OA
ENDROOT
TORSDOF 0
REMARK  Name = ../refined-set-2016/3vdb/3vdb_pocket.pdb
REMARK  184 active torsions:
REMARK  status: ('A' for Active; 'I' for Inactive)
REMARK    1  A    between atoms: _1  and  _3
REMARK    2  A    between atoms: _3  and  _4
REMARK    3  A    between atoms: _3  and  _6
REMARK    4  A    between atoms: _6  and  _7
REMARK    5  A    between atoms: _12  and  _13
REMARK    6  A    between atoms: _15  and  _17
REMARK    7  A    between atoms: _17  and  _18
REMARK    8  A    between atoms: _17  and  _20
REMARK    9  A    between atoms: _20  and  _21
REMARK   10  A    between atoms: _24  and  _26
REMARK   11  A    between atoms: _26  and  _27
REMARK   12  A    between atoms: _26  and  _29
REMARK   13  A    between atoms: _29  and  _30
REMARK   14  A    between atoms: _35  and  _37
REMARK   15  A    between atoms: _37  and  _38
REMARK   16  A    between atoms: _37  and  _40
REMARK   17  A    between atoms: _43  and  _45
REMARK   18  A    between atoms: _45  and  _46
REMARK   19  A    between atoms: _45  and  _48
REMARK   20  A    between atoms: _48  and  _49
REMARK   21  A    between atoms: _52  and  _54
REMARK   22  A    between atoms: _54  and  _55
REMARK   23  A    between atoms: _54  and  _57
REMARK   24  A    between atoms: _57  and  _58
REMARK   25  A    between atoms: _58  and  _59
REMARK   26  A    between atoms: _64  and  _66
REMARK   27  A    between atoms: _66  and  _67
REMARK   28  A    between atoms: _66  and  _69
REMARK   29  A    between atoms: _69  and  _70
REMARK   30  A    between atoms: _73  and  _75
REMARK   31  A    between atoms: _75  and  _76
REMARK   32  A    between atoms: _75  and  _78
REMARK   33  A    between atoms: _78  and  _79
REMARK   34  A    between atoms: _79  and  _80
REMARK   35  A    between atoms: _82  and  _84
REMARK   36  A    between atoms: _84  and  _85
REMARK   37  A    between atoms: _84  and  _87
REMARK   38  A    between atoms: _87  and  _88
REMARK   39  A    between atoms: _88  and  _89
REMARK   40  A    between atoms: _89  and  _90
REMARK   41  A    between atoms: _99  and  _101
REMARK   42  A    between atoms: _101  and  _102
REMARK   43  A    between atoms: _101  and  _104
REMARK   44  A    between atoms: _104  and  _105
REMARK   45  A    between atoms: _110  and  _112
REMARK   46  A    between atoms: _112  and  _113
REMARK   47  A    between atoms: _112  and  _115
REMARK   48  A    between atoms: _115  and  _116
REMARK   49  A    between atoms: _121  and  _123
REMARK   50  A    between atoms: _123  and  _124
REMARK   51  A    between atoms: _123  and  _126
REMARK   52  A    between atoms: _126  and  _127
REMARK   53  A    between atoms: _127  and  _128
REMARK   54  A    between atoms: _128  and  _129
REMARK   55  A    between atoms: _138  and  _140
REMARK   56  A    between atoms: _140  and  _141
REMARK   57  A    between atoms: _140  and  _143
REMARK   58  A    between atoms: _143  and  _144
REMARK   59  A    between atoms: _146  and  _148
REMARK   60  A    between atoms: _148  and  _149
REMARK   61  A    between atoms: _148  and  _151
REMARK   62  A    between atoms: _151  and  _152
REMARK   63  A    between atoms: _157  and  _159
REMARK   64  A    between atoms: _159  and  _160
REMARK   65  A    between atoms: _159  and  _162
REMARK   66  A    between atoms: _162  and  _163
REMARK   67  A    between atoms: _163  and  _164
REMARK   68  A    between atoms: _167  and  _169
REMARK   69  A    between atoms: _169  and  _170
REMARK   70  A    between atoms: _169  and  _172
REMARK   71  A    between atoms: _172  and  _173
REMARK   72  A    between atoms: _173  and  _174
REMARK   73  A    between atoms: _174  and  _176
REMARK   74  A    between atoms: _176  and  MG_430
REMARK   75  A    between atoms: _177  and  _179
REMARK   76  A    between atoms: _179  and  _180
REMARK   77  A    between atoms: _179  and  _182
REMARK   78  A    between atoms: _182  and  _183
REMARK   79  A    between atoms: _188  and  _190
REMARK   80  A    between atoms: _190  and  _191
REMARK   81  A    between atoms: _193  and  _195
REMARK   82  A    between atoms: _195  and  _196
REMARK   83  A    between atoms: _195  and  _198
REMARK   84  A    between atoms: _198  and  _199
REMARK   85  A    between atoms: _202  and  _204
REMARK   86  A    between atoms: _204  and  _205
REMARK   87  A    between atoms: _204  and  _207
REMARK   88  A    between atoms: _207  and  _208
REMARK   89  A    between atoms: _208  and  _209
REMARK   90  A    between atoms: _209  and  _210
REMARK   91  A    between atoms: _210  and  MG_430
REMARK   92  A    between atoms: _212  and  _214
REMARK   93  A    between atoms: _214  and  _215
REMARK   94  A    between atoms: _214  and  _217
REMARK   95  A    between atoms: _217  and  _218
REMARK   96  A    between atoms: _218  and  _219
REMARK   97  A    between atoms: _222  and  _224
REMARK   98  A    between atoms: _224  and  _225
REMARK   99  A    between atoms: _224  and  _227
REMARK  100  A    between atoms: _227  and  _228
REMARK  101  A    between atoms: _228  and  _229
REMARK  102  A    between atoms: _231  and  _233
REMARK  103  A    between atoms: _233  and  _234
REMARK  104  A    between atoms: _233  and  _236
REMARK  105  A    between atoms: _236  and  _237
REMARK  106  A    between atoms: _242  and  _243
REMARK  107  A    between atoms: _245  and  _247
REMARK  108  A    between atoms: _247  and  _248
REMARK  109  A    between atoms: _247  and  _250
REMARK  110  A    between atoms: _250  and  _251
REMARK  111  A    between atoms: _251  and  _252
REMARK  112  A    between atoms: _252  and  _253
REMARK  113  A    between atoms: _253  and  _254
REMARK  114  A    between atoms: _258  and  _260
REMARK  115  A    between atoms: _260  and  _261
REMARK  116  A    between atoms: _260  and  _263
REMARK  117  A    between atoms: _265  and  _267
REMARK  118  A    between atoms: _267  and  _268
REMARK  119  A    between atoms: _267  and  _270
REMARK  120  A    between atoms: _270  and  _271
REMARK  121  A    between atoms: _271  and  _272
REMARK  122  A    between atoms: _275  and  _277
REMARK  123  A    between atoms: _277  and  _278
REMARK  124  A    between atoms: _277  and  _280
REMARK  125  A    between atoms: _280  and  _281
REMARK  126  A    between atoms: _286  and  _288
REMARK  127  A    between atoms: _288  and  _289
REMARK  128  A    between atoms: _292  and  _294
REMARK  129  A    between atoms: _294  and  _295
REMARK  130  A    between atoms: _294  and  _297
REMARK  131  A    between atoms: _297  and  _298
REMARK  132  A    between atoms: _298  and  _299
REMARK  133  A    between atoms: _301  and  _303
REMARK  134  A    between atoms: _303  and  _304
REMARK  135  A    between atoms: _303  and  _306
REMARK  136  A    between atoms: _306  and  _307
REMARK  137  A    between atoms: _317  and  _319
REMARK  138  A    between atoms: _319  and  _320
REMARK  139  A    between atoms: _319  and  _322
REMARK  140  A    between atoms: _322  and  _323
REMARK  141  A    between atoms: _326  and  _328
REMARK  142  A    between atoms: _328  and  _329
REMARK  143  A    between atoms: _328  and  _331
REMARK  144  A    between atoms: _331  and  _332
REMARK  145  A    between atoms: _332  and  _333
REMARK  146  A    between atoms: _338  and  _340
REMARK  147  A    between atoms: _340  and  _341
REMARK  148  A    between atoms: _340  and  _343
REMARK  149  A    between atoms: _343  and  _344
REMARK  150  A    between atoms: _344  and  _345
REMARK  151  A    between atoms: _350  and  _352
REMARK  152  A    between atoms: _352  and  _353
REMARK  153  A    between atoms: _352  and  _355
REMARK  154  A    between atoms: _355  and  _356
REMARK  155  A    between atoms: _362  and  _364
REMARK  156  A    between atoms: _364  and  _365
REMARK  157  A    between atoms: _364  and  _367
REMARK  158  A    between atoms: _369  and  _371
REMARK  159  A    between atoms: _371  and  _372
REMARK  160  A    between atoms: _371  and  _374
REMARK  161  A    between atoms: _374  and  _375
REMARK  162  A    between atoms: _375  and  _376
REMARK  163  A    between atoms: _378  and  _380
REMARK  164  A    between atoms: _380  and  _381
REMARK  165  A    between atoms: _380  and  _383
REMARK  166  A    between atoms: _383  and  _384
REMARK  167  A    between atoms: _384  and  _385
REMARK  168  A    between atoms: _384  and  _386
REMARK  169  A    between atoms: _389  and  _391
REMARK  170  A    between atoms: _391  and  _392
REMARK  171  A    between atoms: _391  and  _394
REMARK  172  A    between atoms: _394  and  _395
REMARK  173  A    between atoms: _397  and  _399
REMARK  174  A    between atoms: _399  and  _400
REMARK  175  A    between atoms: _399  and  _402
REMARK  176  A    between atoms: _402  and  _403
REMARK  177  A    between atoms: _406  and  _408
REMARK  178  A    between atoms: _408  and  _409
REMARK  179  A    between atoms: _408  and  _411
REMARK  180  A    between atoms: _411  and  _412
REMARK  181  A    between atoms: _414  and  _416
REMARK  182  A    between atoms: _416  and  _417
REMARK  183  A    between atoms: _416  and  _419
REMARK  184  A    between atoms: _419  and  _420
REMARK                            x       y       z     vdW  Elec       q    Type
REMARK                         _______ _______ _______ _____ _____    ______ ____
ROOT
ATOM      1  O   HOH     1      -9.568 -32.089 -30.347  0.00  0.00    +0.000 OA
ENDROOT
TORSDOF 0
REMARK  Name = ../refined-set-2016/3vdb/3vdb_pocket.pdb
REMARK  184 active torsions:
REMARK  status: ('A' for Active; 'I' for Inactive)
REMARK    1  A    between atoms: _1  and  _3
REMARK    2  A    between atoms: _3  and  _4
REMARK    3  A    between atoms: _3  and  _6
REMARK    4  A    between atoms: _6  and  _7
REMARK    5  A    between atoms: _12  and  _13
REMARK    6  A    between atoms: _15  and  _17
REMARK    7  A    between atoms: _17  and  _18
REMARK    8  A    between atoms: _17  and  _20
REMARK    9  A    between atoms: _20  and  _21
REMARK   10  A    between atoms: _24  and  _26
REMARK   11  A    between atoms: _26  and  _27
REMARK   12  A    between atoms: _26  and  _29
REMARK   13  A    between atoms: _29  and  _30
REMARK   14  A    between atoms: _35  and  _37
REMARK   15  A    between atoms: _37  and  _38
REMARK   16  A    between atoms: _37  and  _40
REMARK   17  A    between atoms: _43  and  _45
REMARK   18  A    between atoms: _45  and  _46
REMARK   19  A    between atoms: _45  and  _48
REMARK   20  A    between atoms: _48  and  _49
REMARK   21  A    between atoms: _52  and  _54
REMARK   22  A    between atoms: _54  and  _55
REMARK   23  A    between atoms: _54  and  _57
REMARK   24  A    between atoms: _57  and  _58
REMARK   25  A    between atoms: _58  and  _59
REMARK   26  A    between atoms: _64  and  _66
REMARK   27  A    between atoms: _66  and  _67
REMARK   28  A    between atoms: _66  and  _69
REMARK   29  A    between atoms: _69  and  _70
REMARK   30  A    between atoms: _73  and  _75
REMARK   31  A    between atoms: _75  and  _76
REMARK   32  A    between atoms: _75  and  _78
REMARK   33  A    between atoms: _78  and  _79
REMARK   34  A    between atoms: _79  and  _80
REMARK   35  A    between atoms: _82  and  _84
REMARK   36  A    between atoms: _84  and  _85
REMARK   37  A    between atoms: _84  and  _87
REMARK   38  A    between atoms: _87  and  _88
REMARK   39  A    between atoms: _88  and  _89
REMARK   40  A    between atoms: _89  and  _90
REMARK   41  A    between atoms: _99  and  _101
REMARK   42  A    between atoms: _101  and  _102
REMARK   43  A    between atoms: _101  and  _104
REMARK   44  A    between atoms: _104  and  _105
REMARK   45  A    between atoms: _110  and  _112
REMARK   46  A    between atoms: _112  and  _113
REMARK   47  A    between atoms: _112  and  _115
REMARK   48  A    between atoms: _115  and  _116
REMARK   49  A    between atoms: _121  and  _123
REMARK   50  A    between atoms: _123  and  _124
REMARK   51  A    between atoms: _123  and  _126
REMARK   52  A    between atoms: _126  and  _127
REMARK   53  A    between atoms: _127  and  _128
REMARK   54  A    between atoms: _128  and  _129
REMARK   55  A    between atoms: _138  and  _140
REMARK   56  A    between atoms: _140  and  _141
REMARK   57  A    between atoms: _140  and  _143
REMARK   58  A    between atoms: _143  and  _144
REMARK   59  A    between atoms: _146  and  _148
REMARK   60  A    between atoms: _148  and  _149
REMARK   61  A    between atoms: _148  and  _151
REMARK   62  A    between atoms: _151  and  _152
REMARK   63  A    between atoms: _157  and  _159
REMARK   64  A    between atoms: _159  and  _160
REMARK   65  A    between atoms: _159  and  _162
REMARK   66  A    between atoms: _162  and  _163
REMARK   67  A    between atoms: _163  and  _164
REMARK   68  A    between atoms: _167  and  _169
REMARK   69  A    between atoms: _169  and  _170
REMARK   70  A    between atoms: _169  and  _172
REMARK   71  A    between atoms: _172  and  _173
REMARK   72  A    between atoms: _173  and  _174
REMARK   73  A    between atoms: _174  and  _176
REMARK   74  A    between atoms: _176  and  MG_430
REMARK   75  A    between atoms: _177  and  _179
REMARK   76  A    between atoms: _179  and  _180
REMARK   77  A    between atoms: _179  and  _182
REMARK   78  A    between atoms: _182  and  _183
REMARK   79  A    between atoms: _188  and  _190
REMARK   80  A    between atoms: _190  and  _191
REMARK   81  A    between atoms: _193  and  _195
REMARK   82  A    between atoms: _195  and  _196
REMARK   83  A    between atoms: _195  and  _198
REMARK   84  A    between atoms: _198  and  _199
REMARK   85  A    between atoms: _202  and  _204
REMARK   86  A    between atoms: _204  and  _205
REMARK   87  A    between atoms: _204  and  _207
REMARK   88  A    between atoms: _207  and  _208
REMARK   89  A    between atoms: _208  and  _209
REMARK   90  A    between atoms: _209  and  _210
REMARK   91  A    between atoms: _210  and  MG_430
REMARK   92  A    between atoms: _212  and  _214
REMARK   93  A    between atoms: _214  and  _215
REMARK   94  A    between atoms: _214  and  _217
REMARK   95  A    between atoms: _217  and  _218
REMARK   96  A    between atoms: _218  and  _219
REMARK   97  A    between atoms: _222  and  _224
REMARK   98  A    between atoms: _224  and  _225
REMARK   99  A    between atoms: _224  and  _227
REMARK  100  A    between atoms: _227  and  _228
REMARK  101  A    between atoms: _228  and  _229
REMARK  102  A    between atoms: _231  and  _233
REMARK  103  A    between atoms: _233  and  _234
REMARK  104  A    between atoms: _233  and  _236
REMARK  105  A    between atoms: _236  and  _237
REMARK  106  A    between atoms: _242  and  _243
REMARK  107  A    between atoms: _245  and  _247
REMARK  108  A    between atoms: _247  and  _248
REMARK  109  A    between atoms: _247  and  _250
REMARK  110  A    between atoms: _250  and  _251
REMARK  111  A    between atoms: _251  and  _252
REMARK  112  A    between atoms: _252  and  _253
REMARK  113  A    between atoms: _253  and  _254
REMARK  114  A    between atoms: _258  and  _260
REMARK  115  A    between atoms: _260  and  _261
REMARK  116  A    between atoms: _260  and  _263
REMARK  117  A    between atoms: _265  and  _267
REMARK  118  A    between atoms: _267  and  _268
REMARK  119  A    between atoms: _267  and  _270
REMARK  120  A    between atoms: _270  and  _271
REMARK  121  A    between atoms: _271  and  _272
REMARK  122  A    between atoms: _275  and  _277
REMARK  123  A    between atoms: _277  and  _278
REMARK  124  A    between atoms: _277  and  _280
REMARK  125  A    between atoms: _280  and  _281
REMARK  126  A    between atoms: _286  and  _288
REMARK  127  A    between atoms: _288  and  _289
REMARK  128  A    between atoms: _292  and  _294
REMARK  129  A    between atoms: _294  and  _295
REMARK  130  A    between atoms: _294  and  _297
REMARK  131  A    between atoms: _297  and  _298
REMARK  132  A    between atoms: _298  and  _299
REMARK  133  A    between atoms: _301  and  _303
REMARK  134  A    between atoms: _303  and  _304
REMARK  135  A    between atoms: _303  and  _306
REMARK  136  A    between atoms: _306  and  _307
REMARK  137  A    between atoms: _317  and  _319
REMARK  138  A    between atoms: _319  and  _320
REMARK  139  A    between atoms: _319  and  _322
REMARK  140  A    between atoms: _322  and  _323
REMARK  141  A    between atoms: _326  and  _328
REMARK  142  A    between atoms: _328  and  _329
REMARK  143  A    between atoms: _328  and  _331
REMARK  144  A    between atoms: _331  and  _332
REMARK  145  A    between atoms: _332  and  _333
REMARK  146  A    between atoms: _338  and  _340
REMARK  147  A    between atoms: _340  and  _341
REMARK  148  A    between atoms: _340  and  _343
REMARK  149  A    between atoms: _343  and  _344
REMARK  150  A    between atoms: _344  and  _345
REMARK  151  A    between atoms: _350  and  _352
REMARK  152  A    between atoms: _352  and  _353
REMARK  153  A    between atoms: _352  and  _355
REMARK  154  A    between atoms: _355  and  _356
REMARK  155  A    between atoms: _362  and  _364
REMARK  156  A    between atoms: _364  and  _365
REMARK  157  A    between atoms: _364  and  _367
REMARK  158  A    between atoms: _369  and  _371
REMARK  159  A    between atoms: _371  and  _372
REMARK  160  A    between atoms: _371  and  _374
REMARK  161  A    between atoms: _374  and  _375
REMARK  162  A    between atoms: _375  and  _376
REMARK  163  A    between atoms: _378  and  _380
REMARK  164  A    between atoms: _380  and  _381
REMARK  165  A    between atoms: _380  and  _383
REMARK  166  A    between atoms: _383  and  _384
REMARK  167  A    between atoms: _384  and  _385
REMARK  168  A    between atoms: _384  and  _386
REMARK  169  A    between atoms: _389  and  _391
REMARK  170  A    between atoms: _391  and  _392
REMARK  171  A    between atoms: _391  and  _394
REMARK  172  A    between atoms: _394  and  _395
REMARK  173  A    between atoms: _397  and  _399
REMARK  174  A    between atoms: _399  and  _400
REMARK  175  A    between atoms: _399  and  _402
REMARK  176  A    between atoms: _402  and  _403
REMARK  177  A    between atoms: _406  and  _408
REMARK  178  A    between atoms: _408  and  _409
REMARK  179  A    between atoms: _408  and  _411
REMARK  180  A    between atoms: _411  and  _412
REMARK  181  A    between atoms: _414  and  _416
REMARK  182  A    between atoms: _416  and  _417
REMARK  183  A    between atoms: _416  and  _419
REMARK  184  A    between atoms: _419  and  _420
REMARK                            x       y       z     vdW  Elec       q    Type
REMARK                         _______ _______ _______ _____ _____    ______ ____
ROOT
ATOM      1  O   HOH     1     -16.942 -27.069 -21.268  0.00  0.00    +0.000 OA
ENDROOT
TORSDOF 0
REMARK  Name = ../refined-set-2016/3vdb/3vdb_pocket.pdb
REMARK  184 active torsions:
REMARK  status: ('A' for Active; 'I' for Inactive)
REMARK    1  A    between atoms: _1  and  _3
REMARK    2  A    between atoms: _3  and  _4
REMARK    3  A    between atoms: _3  and  _6
REMARK    4  A    between atoms: _6  and  _7
REMARK    5  A    between atoms: _12  and  _13
REMARK    6  A    between atoms: _15  and  _17
REMARK    7  A    between atoms: _17  and  _18
REMARK    8  A    between atoms: _17  and  _20
REMARK    9  A    between atoms: _20  and  _21
REMARK   10  A    between atoms: _24  and  _26
REMARK   11  A    between atoms: _26  and  _27
REMARK   12  A    between atoms: _26  and  _29
REMARK   13  A    between atoms: _29  and  _30
REMARK   14  A    between atoms: _35  and  _37
REMARK   15  A    between atoms: _37  and  _38
REMARK   16  A    between atoms: _37  and  _40
REMARK   17  A    between atoms: _43  and  _45
REMARK   18  A    between atoms: _45  and  _46
REMARK   19  A    between atoms: _45  and  _48
REMARK   20  A    between atoms: _48  and  _49
REMARK   21  A    between atoms: _52  and  _54
REMARK   22  A    between atoms: _54  and  _55
REMARK   23  A    between atoms: _54  and  _57
REMARK   24  A    between atoms: _57  and  _58
REMARK   25  A    between atoms: _58  and  _59
REMARK   26  A    between atoms: _64  and  _66
REMARK   27  A    between atoms: _66  and  _67
REMARK   28  A    between atoms: _66  and  _69
REMARK   29  A    between atoms: _69  and  _70
REMARK   30  A    between atoms: _73  and  _75
REMARK   31  A    between atoms: _75  and  _76
REMARK   32  A    between atoms: _75  and  _78
REMARK   33  A    between atoms: _78  and  _79
REMARK   34  A    between atoms: _79  and  _80
REMARK   35  A    between atoms: _82  and  _84
REMARK   36  A    between atoms: _84  and  _85
REMARK   37  A    between atoms: _84  and  _87
REMARK   38  A    between atoms: _87  and  _88
REMARK   39  A    between atoms: _88  and  _89
REMARK   40  A    between atoms: _89  and  _90
REMARK   41  A    between atoms: _99  and  _101
REMARK   42  A    between atoms: _101  and  _102
REMARK   43  A    between atoms: _101  and  _104
REMARK   44  A    between atoms: _104  and  _105
REMARK   45  A    between atoms: _110  and  _112
REMARK   46  A    between atoms: _112  and  _113
REMARK   47  A    between atoms: _112  and  _115
REMARK   48  A    between atoms: _115  and  _116
REMARK   49  A    between atoms: _121  and  _123
REMARK   50  A    between atoms: _123  and  _124
REMARK   51  A    between atoms: _123  and  _126
REMARK   52  A    between atoms: _126  and  _127
REMARK   53  A    between atoms: _127  and  _128
REMARK   54  A    between atoms: _128  and  _129
REMARK   55  A    between atoms: _138  and  _140
REMARK   56  A    between atoms: _140  and  _141
REMARK   57  A    between atoms: _140  and  _143
REMARK   58  A    between atoms: _143  and  _144
REMARK   59  A    between atoms: _146  and  _148
REMARK   60  A    between atoms: _148  and  _149
REMARK   61  A    between atoms: _148  and  _151
REMARK   62  A    between atoms: _151  and  _152
REMARK   63  A    between atoms: _157  and  _159
REMARK   64  A    between atoms: _159  and  _160
REMARK   65  A    between atoms: _159  and  _162
REMARK   66  A    between atoms: _162  and  _163
REMARK   67  A    between atoms: _163  and  _164
REMARK   68  A    between atoms: _167  and  _169
REMARK   69  A    between atoms: _169  and  _170
REMARK   70  A    between atoms: _169  and  _172
REMARK   71  A    between atoms: _172  and  _173
REMARK   72  A    between atoms: _173  and  _174
REMARK   73  A    between atoms: _174  and  _176
REMARK   74  A    between atoms: _176  and  MG_430
REMARK   75  A    between atoms: _177  and  _179
REMARK   76  A    between atoms: _179  and  _180
REMARK   77  A    between atoms: _179  and  _182
REMARK   78  A    between atoms: _182  and  _183
REMARK   79  A    between atoms: _188  and  _190
REMARK   80  A    between atoms: _190  and  _191
REMARK   81  A    between atoms: _193  and  _195
REMARK   82  A    between atoms: _195  and  _196
REMARK   83  A    between atoms: _195  and  _198
REMARK   84  A    between atoms: _198  and  _199
REMARK   85  A    between atoms: _202  and  _204
REMARK   86  A    between atoms: _204  and  _205
REMARK   87  A    between atoms: _204  and  _207
REMARK   88  A    between atoms: _207  and  _208
REMARK   89  A    between atoms: _208  and  _209
REMARK   90  A    between atoms: _209  and  _210
REMARK   91  A    between atoms: _210  and  MG_430
REMARK   92  A    between atoms: _212  and  _214
REMARK   93  A    between atoms: _214  and  _215
REMARK   94  A    between atoms: _214  and  _217
REMARK   95  A    between atoms: _217  and  _218
REMARK   96  A    between atoms: _218  and  _219
REMARK   97  A    between atoms: _222  and  _224
REMARK   98  A    between atoms: _224  and  _225
REMARK   99  A    between atoms: _224  and  _227
REMARK  100  A    between atoms: _227  and  _228
REMARK  101  A    between atoms: _228  and  _229
REMARK  102  A    between atoms: _231  and  _233
REMARK  103  A    between atoms: _233  and  _234
REMARK  104  A    between atoms: _233  and  _236
REMARK  105  A    between atoms: _236  and  _237
REMARK  106  A    between atoms: _242  and  _243
REMARK  107  A    between atoms: _245  and  _247
REMARK  108  A    between atoms: _247  and  _248
REMARK  109  A    between atoms: _247  and  _250
REMARK  110  A    between atoms: _250  and  _251
REMARK  111  A    between atoms: _251  and  _252
REMARK  112  A    between atoms: _252  and  _253
REMARK  113  A    between atoms: _253  and  _254
REMARK  114  A    between atoms: _258  and  _260
REMARK  115  A    between atoms: _260  and  _261
REMARK  116  A    between atoms: _260  and  _263
REMARK  117  A    between atoms: _265  and  _267
REMARK  118  A    between atoms: _267  and  _268
REMARK  119  A    between atoms: _267  and  _270
REMARK  120  A    between atoms: _270  and  _271
REMARK  121  A    between atoms: _271  and  _272
REMARK  122  A    between atoms: _275  and  _277
REMARK  123  A    between atoms: _277  and  _278
REMARK  124  A    between atoms: _277  and  _280
REMARK  125  A    between atoms: _280  and  _281
REMARK  126  A    between atoms: _286  and  _288
REMARK  127  A    between atoms: _288  and  _289
REMARK  128  A    between atoms: _292  and  _294
REMARK  129  A    between atoms: _294  and  _295
REMARK  130  A    between atoms: _294  and  _297
REMARK  131  A    between atoms: _297  and  _298
REMARK  132  A    between atoms: _298  and  _299
REMARK  133  A    between atoms: _301  and  _303
REMARK  134  A    between atoms: _303  and  _304
REMARK  135  A    between atoms: _303  and  _306
REMARK  136  A    between atoms: _306  and  _307
REMARK  137  A    between atoms: _317  and  _319
REMARK  138  A    between atoms: _319  and  _320
REMARK  139  A    between atoms: _319  and  _322
REMARK  140  A    between atoms: _322  and  _323
REMARK  141  A    between atoms: _326  and  _328
REMARK  142  A    between atoms: _328  and  _329
REMARK  143  A    between atoms: _328  and  _331
REMARK  144  A    between atoms: _331  and  _332
REMARK  145  A    between atoms: _332  and  _333
REMARK  146  A    between atoms: _338  and  _340
REMARK  147  A    between atoms: _340  and  _341
REMARK  148  A    between atoms: _340  and  _343
REMARK  149  A    between atoms: _343  and  _344
REMARK  150  A    between atoms: _344  and  _345
REMARK  151  A    between atoms: _350  and  _352
REMARK  152  A    between atoms: _352  and  _353
REMARK  153  A    between atoms: _352  and  _355
REMARK  154  A    between atoms: _355  and  _356
REMARK  155  A    between atoms: _362  and  _364
REMARK  156  A    between atoms: _364  and  _365
REMARK  157  A    between atoms: _364  and  _367
REMARK  158  A    between atoms: _369  and  _371
REMARK  159  A    between atoms: _371  and  _372
REMARK  160  A    between atoms: _371  and  _374
REMARK  161  A    between atoms: _374  and  _375
REMARK  162  A    between atoms: _375  and  _376
REMARK  163  A    between atoms: _378  and  _380
REMARK  164  A    between atoms: _380  and  _381
REMARK  165  A    between atoms: _380  and  _383
REMARK  166  A    between atoms: _383  and  _384
REMARK  167  A    between atoms: _384  and  _385
REMARK  168  A    between atoms: _384  and  _386
REMARK  169  A    between atoms: _389  and  _391
REMARK  170  A    between atoms: _391  and  _392
REMARK  171  A    between atoms: _391  and  _394
REMARK  172  A    between atoms: _394  and  _395
REMARK  173  A    between atoms: _397  and  _399
REMARK  174  A    between atoms: _399  and  _400
REMARK  175  A    between atoms: _399  and  _402
REMARK  176  A    between atoms: _402  and  _403
REMARK  177  A    between atoms: _406  and  _408
REMARK  178  A    between atoms: _408  and  _409
REMARK  179  A    between atoms: _408  and  _411
REMARK  180  A    between atoms: _411  and  _412
REMARK  181  A    between atoms: _414  and  _416
REMARK  182  A    between atoms: _416  and  _417
REMARK  183  A    between atoms: _416  and  _419
REMARK  184  A    between atoms: _419  and  _420
REMARK                            x       y       z     vdW  Elec       q    Type
REMARK                         _______ _______ _______ _____ _____    ______ ____
ROOT
ATOM      1  O   HOH     1     -18.011 -21.714 -25.093  0.00  0.00    +0.000 OA
ENDROOT
TORSDOF 0
REMARK  Name = ../refined-set-2016/3vdb/3vdb_pocket.pdb
REMARK  184 active torsions:
REMARK  status: ('A' for Active; 'I' for Inactive)
REMARK    1  A    between atoms: _1  and  _3
REMARK    2  A    between atoms: _3  and  _4
REMARK    3  A    between atoms: _3  and  _6
REMARK    4  A    between atoms: _6  and  _7
REMARK    5  A    between atoms: _12  and  _13
REMARK    6  A    between atoms: _15  and  _17
REMARK    7  A    between atoms: _17  and  _18
REMARK    8  A    between atoms: _17  and  _20
REMARK    9  A    between atoms: _20  and  _21
REMARK   10  A    between atoms: _24  and  _26
REMARK   11  A    between atoms: _26  and  _27
REMARK   12  A    between atoms: _26  and  _29
REMARK   13  A    between atoms: _29  and  _30
REMARK   14  A    between atoms: _35  and  _37
REMARK   15  A    between atoms: _37  and  _38
REMARK   16  A    between atoms: _37  and  _40
REMARK   17  A    between atoms: _43  and  _45
REMARK   18  A    between atoms: _45  and  _46
REMARK   19  A    between atoms: _45  and  _48
REMARK   20  A    between atoms: _48  and  _49
REMARK   21  A    between atoms: _52  and  _54
REMARK   22  A    between atoms: _54  and  _55
REMARK   23  A    between atoms: _54  and  _57
REMARK   24  A    between atoms: _57  and  _58
REMARK   25  A    between atoms: _58  and  _59
REMARK   26  A    between atoms: _64  and  _66
REMARK   27  A    between atoms: _66  and  _67
REMARK   28  A    between atoms: _66  and  _69
REMARK   29  A    between atoms: _69  and  _70
REMARK   30  A    between atoms: _73  and  _75
REMARK   31  A    between atoms: _75  and  _76
REMARK   32  A    between atoms: _75  and  _78
REMARK   33  A    between atoms: _78  and  _79
REMARK   34  A    between atoms: _79  and  _80
REMARK   35  A    between atoms: _82  and  _84
REMARK   36  A    between atoms: _84  and  _85
REMARK   37  A    between atoms: _84  and  _87
REMARK   38  A    between atoms: _87  and  _88
REMARK   39  A    between atoms: _88  and  _89
REMARK   40  A    between atoms: _89  and  _90
REMARK   41  A    between atoms: _99  and  _101
REMARK   42  A    between atoms: _101  and  _102
REMARK   43  A    between atoms: _101  and  _104
REMARK   44  A    between atoms: _104  and  _105
REMARK   45  A    between atoms: _110  and  _112
REMARK   46  A    between atoms: _112  and  _113
REMARK   47  A    between atoms: _112  and  _115
REMARK   48  A    between atoms: _115  and  _116
REMARK   49  A    between atoms: _121  and  _123
REMARK   50  A    between atoms: _123  and  _124
REMARK   51  A    between atoms: _123  and  _126
REMARK   52  A    between atoms: _126  and  _127
REMARK   53  A    between atoms: _127  and  _128
REMARK   54  A    between atoms: _128  and  _129
REMARK   55  A    between atoms: _138  and  _140
REMARK   56  A    between atoms: _140  and  _141
REMARK   57  A    between atoms: _140  and  _143
REMARK   58  A    between atoms: _143  and  _144
REMARK   59  A    between atoms: _146  and  _148
REMARK   60  A    between atoms: _148  and  _149
REMARK   61  A    between atoms: _148  and  _151
REMARK   62  A    between atoms: _151  and  _152
REMARK   63  A    between atoms: _157  and  _159
REMARK   64  A    between atoms: _159  and  _160
REMARK   65  A    between atoms: _159  and  _162
REMARK   66  A    between atoms: _162  and  _163
REMARK   67  A    between atoms: _163  and  _164
REMARK   68  A    between atoms: _167  and  _169
REMARK   69  A    between atoms: _169  and  _170
REMARK   70  A    between atoms: _169  and  _172
REMARK   71  A    between atoms: _172  and  _173
REMARK   72  A    between atoms: _173  and  _174
REMARK   73  A    between atoms: _174  and  _176
REMARK   74  A    between atoms: _176  and  MG_430
REMARK   75  A    between atoms: _177  and  _179
REMARK   76  A    between atoms: _179  and  _180
REMARK   77  A    between atoms: _179  and  _182
REMARK   78  A    between atoms: _182  and  _183
REMARK   79  A    between atoms: _188  and  _190
REMARK   80  A    between atoms: _190  and  _191
REMARK   81  A    between atoms: _193  and  _195
REMARK   82  A    between atoms: _195  and  _196
REMARK   83  A    between atoms: _195  and  _198
REMARK   84  A    between atoms: _198  and  _199
REMARK   85  A    between atoms: _202  and  _204
REMARK   86  A    between atoms: _204  and  _205
REMARK   87  A    between atoms: _204  and  _207
REMARK   88  A    between atoms: _207  and  _208
REMARK   89  A    between atoms: _208  and  _209
REMARK   90  A    between atoms: _209  and  _210
REMARK   91  A    between atoms: _210  and  MG_430
REMARK   92  A    between atoms: _212  and  _214
REMARK   93  A    between atoms: _214  and  _215
REMARK   94  A    between atoms: _214  and  _217
REMARK   95  A    between atoms: _217  and  _218
REMARK   96  A    between atoms: _218  and  _219
REMARK   97  A    between atoms: _222  and  _224
REMARK   98  A    between atoms: _224  and  _225
REMARK   99  A    between atoms: _224  and  _227
REMARK  100  A    between atoms: _227  and  _228
REMARK  101  A    between atoms: _228  and  _229
REMARK  102  A    between atoms: _231  and  _233
REMARK  103  A    between atoms: _233  and  _234
REMARK  104  A    between atoms: _233  and  _236
REMARK  105  A    between atoms: _236  and  _237
REMARK  106  A    between atoms: _242  and  _243
REMARK  107  A    between atoms: _245  and  _247
REMARK  108  A    between atoms: _247  and  _248
REMARK  109  A    between atoms: _247  and  _250
REMARK  110  A    between atoms: _250  and  _251
REMARK  111  A    between atoms: _251  and  _252
REMARK  112  A    between atoms: _252  and  _253
REMARK  113  A    between atoms: _253  and  _254
REMARK  114  A    between atoms: _258  and  _260
REMARK  115  A    between atoms: _260  and  _261
REMARK  116  A    between atoms: _260  and  _263
REMARK  117  A    between atoms: _265  and  _267
REMARK  118  A    between atoms: _267  and  _268
REMARK  119  A    between atoms: _267  and  _270
REMARK  120  A    between atoms: _270  and  _271
REMARK  121  A    between atoms: _271  and  _272
REMARK  122  A    between atoms: _275  and  _277
REMARK  123  A    between atoms: _277  and  _278
REMARK  124  A    between atoms: _277  and  _280
REMARK  125  A    between atoms: _280  and  _281
REMARK  126  A    between atoms: _286  and  _288
REMARK  127  A    between atoms: _288  and  _289
REMARK  128  A    between atoms: _292  and  _294
REMARK  129  A    between atoms: _294  and  _295
REMARK  130  A    between atoms: _294  and  _297
REMARK  131  A    between atoms: _297  and  _298
REMARK  132  A    between atoms: _298  and  _299
REMARK  133  A    between atoms: _301  and  _303
REMARK  134  A    between atoms: _303  and  _304
REMARK  135  A    between atoms: _303  and  _306
REMARK  136  A    between atoms: _306  and  _307
REMARK  137  A    between atoms: _317  and  _319
REMARK  138  A    between atoms: _319  and  _320
REMARK  139  A    between atoms: _319  and  _322
REMARK  140  A    between atoms: _322  and  _323
REMARK  141  A    between atoms: _326  and  _328
REMARK  142  A    between atoms: _328  and  _329
REMARK  143  A    between atoms: _328  and  _331
REMARK  144  A    between atoms: _331  and  _332
REMARK  145  A    between atoms: _332  and  _333
REMARK  146  A    between atoms: _338  and  _340
REMARK  147  A    between atoms: _340  and  _341
REMARK  148  A    between atoms: _340  and  _343
REMARK  149  A    between atoms: _343  and  _344
REMARK  150  A    between atoms: _344  and  _345
REMARK  151  A    between atoms: _350  and  _352
REMARK  152  A    between atoms: _352  and  _353
REMARK  153  A    between atoms: _352  and  _355
REMARK  154  A    between atoms: _355  and  _356
REMARK  155  A    between atoms: _362  and  _364
REMARK  156  A    between atoms: _364  and  _365
REMARK  157  A    between atoms: _364  and  _367
REMARK  158  A    between atoms: _369  and  _371
REMARK  159  A    between atoms: _371  and  _372
REMARK  160  A    between atoms: _371  and  _374
REMARK  161  A    between atoms: _374  and  _375
REMARK  162  A    between atoms: _375  and  _376
REMARK  163  A    between atoms: _378  and  _380
REMARK  164  A    between atoms: _380  and  _381
REMARK  165  A    between atoms: _380  and  _383
REMARK  166  A    between atoms: _383  and  _384
REMARK  167  A    between atoms: _384  and  _385
REMARK  168  A    between atoms: _384  and  _386
REMARK  169  A    between atoms: _389  and  _391
REMARK  170  A    between atoms: _391  and  _392
REMARK  171  A    between atoms: _391  and  _394
REMARK  172  A    between atoms: _394  and  _395
REMARK  173  A    between atoms: _397  and  _399
REMARK  174  A    between atoms: _399  and  _400
REMARK  175  A    between atoms: _399  and  _402
REMARK  176  A    between atoms: _402  and  _403
REMARK  177  A    between atoms: _406  and  _408
REMARK  178  A    between atoms: _408  and  _409
REMARK  179  A    between atoms: _408  and  _411
REMARK  180  A    between atoms: _411  and  _412
REMARK  181  A    between atoms: _414  and  _416
REMARK  182  A    between atoms: _416  and  _417
REMARK  183  A    between atoms: _416  and  _419
REMARK  184  A    between atoms: _419  and  _420
REMARK                            x       y       z     vdW  Elec       q    Type
REMARK                         _______ _______ _______ _____ _____    ______ ____
ROOT
ATOM      1  O   HOH     1      -5.712 -24.562 -18.685  0.00  0.00    +0.000 OA
ENDROOT
TORSDOF 0
REMARK  Name = ../refined-set-2016/3vdb/3vdb_pocket.pdb
REMARK  184 active torsions:
REMARK  status: ('A' for Active; 'I' for Inactive)
REMARK    1  A    between atoms: _1  and  _3
REMARK    2  A    between atoms: _3  and  _4
REMARK    3  A    between atoms: _3  and  _6
REMARK    4  A    between atoms: _6  and  _7
REMARK    5  A    between atoms: _12  and  _13
REMARK    6  A    between atoms: _15  and  _17
REMARK    7  A    between atoms: _17  and  _18
REMARK    8  A    between atoms: _17  and  _20
REMARK    9  A    between atoms: _20  and  _21
REMARK   10  A    between atoms: _24  and  _26
REMARK   11  A    between atoms: _26  and  _27
REMARK   12  A    between atoms: _26  and  _29
REMARK   13  A    between atoms: _29  and  _30
REMARK   14  A    between atoms: _35  and  _37
REMARK   15  A    between atoms: _37  and  _38
REMARK   16  A    between atoms: _37  and  _40
REMARK   17  A    between atoms: _43  and  _45
REMARK   18  A    between atoms: _45  and  _46
REMARK   19  A    between atoms: _45  and  _48
REMARK   20  A    between atoms: _48  and  _49
REMARK   21  A    between atoms: _52  and  _54
REMARK   22  A    between atoms: _54  and  _55
REMARK   23  A    between atoms: _54  and  _57
REMARK   24  A    between atoms: _57  and  _58
REMARK   25  A    between atoms: _58  and  _59
REMARK   26  A    between atoms: _64  and  _66
REMARK   27  A    between atoms: _66  and  _67
REMARK   28  A    between atoms: _66  and  _69
REMARK   29  A    between atoms: _69  and  _70
REMARK   30  A    between atoms: _73  and  _75
REMARK   31  A    between atoms: _75  and  _76
REMARK   32  A    between atoms: _75  and  _78
REMARK   33  A    between atoms: _78  and  _79
REMARK   34  A    between atoms: _79  and  _80
REMARK   35  A    between atoms: _82  and  _84
REMARK   36  A    between atoms: _84  and  _85
REMARK   37  A    between atoms: _84  and  _87
REMARK   38  A    between atoms: _87  and  _88
REMARK   39  A    between atoms: _88  and  _89
REMARK   40  A    between atoms: _89  and  _90
REMARK   41  A    between atoms: _99  and  _101
REMARK   42  A    between atoms: _101  and  _102
REMARK   43  A    between atoms: _101  and  _104
REMARK   44  A    between atoms: _104  and  _105
REMARK   45  A    between atoms: _110  and  _112
REMARK   46  A    between atoms: _112  and  _113
REMARK   47  A    between atoms: _112  and  _115
REMARK   48  A    between atoms: _115  and  _116
REMARK   49  A    between atoms: _121  and  _123
REMARK   50  A    between atoms: _123  and  _124
REMARK   51  A    between atoms: _123  and  _126
REMARK   52  A    between atoms: _126  and  _127
REMARK   53  A    between atoms: _127  and  _128
REMARK   54  A    between atoms: _128  and  _129
REMARK   55  A    between atoms: _138  and  _140
REMARK   56  A    between atoms: _140  and  _141
REMARK   57  A    between atoms: _140  and  _143
REMARK   58  A    between atoms: _143  and  _144
REMARK   59  A    between atoms: _146  and  _148
REMARK   60  A    between atoms: _148  and  _149
REMARK   61  A    between atoms: _148  and  _151
REMARK   62  A    between atoms: _151  and  _152
REMARK   63  A    between atoms: _157  and  _159
REMARK   64  A    between atoms: _159  and  _160
REMARK   65  A    between atoms: _159  and  _162
REMARK   66  A    between atoms: _162  and  _163
REMARK   67  A    between atoms: _163  and  _164
REMARK   68  A    between atoms: _167  and  _169
REMARK   69  A    between atoms: _169  and  _170
REMARK   70  A    between atoms: _169  and  _172
REMARK   71  A    between atoms: _172  and  _173
REMARK   72  A    between atoms: _173  and  _174
REMARK   73  A    between atoms: _174  and  _176
REMARK   74  A    between atoms: _176  and  MG_430
REMARK   75  A    between atoms: _177  and  _179
REMARK   76  A    between atoms: _179  and  _180
REMARK   77  A    between atoms: _179  and  _182
REMARK   78  A    between atoms: _182  and  _183
REMARK   79  A    between atoms: _188  and  _190
REMARK   80  A    between atoms: _190  and  _191
REMARK   81  A    between atoms: _193  and  _195
REMARK   82  A    between atoms: _195  and  _196
REMARK   83  A    between atoms: _195  and  _198
REMARK   84  A    between atoms: _198  and  _199
REMARK   85  A    between atoms: _202  and  _204
REMARK   86  A    between atoms: _204  and  _205
REMARK   87  A    between atoms: _204  and  _207
REMARK   88  A    between atoms: _207  and  _208
REMARK   89  A    between atoms: _208  and  _209
REMARK   90  A    between atoms: _209  and  _210
REMARK   91  A    between atoms: _210  and  MG_430
REMARK   92  A    between atoms: _212  and  _214
REMARK   93  A    between atoms: _214  and  _215
REMARK   94  A    between atoms: _214  and  _217
REMARK   95  A    between atoms: _217  and  _218
REMARK   96  A    between atoms: _218  and  _219
REMARK   97  A    between atoms: _222  and  _224
REMARK   98  A    between atoms: _224  and  _225
REMARK   99  A    between atoms: _224  and  _227
REMARK  100  A    between atoms: _227  and  _228
REMARK  101  A    between atoms: _228  and  _229
REMARK  102  A    between atoms: _231  and  _233
REMARK  103  A    between atoms: _233  and  _234
REMARK  104  A    between atoms: _233  and  _236
REMARK  105  A    between atoms: _236  and  _237
REMARK  106  A    between atoms: _242  and  _243
REMARK  107  A    between atoms: _245  and  _247
REMARK  108  A    between atoms: _247  and  _248
REMARK  109  A    between atoms: _247  and  _250
REMARK  110  A    between atoms: _250  and  _251
REMARK  111  A    between atoms: _251  and  _252
REMARK  112  A    between atoms: _252  and  _253
REMARK  113  A    between atoms: _253  and  _254
REMARK  114  A    between atoms: _258  and  _260
REMARK  115  A    between atoms: _260  and  _261
REMARK  116  A    between atoms: _260  and  _263
REMARK  117  A    between atoms: _265  and  _267
REMARK  118  A    between atoms: _267  and  _268
REMARK  119  A    between atoms: _267  and  _270
REMARK  120  A    between atoms: _270  and  _271
REMARK  121  A    between atoms: _271  and  _272
REMARK  122  A    between atoms: _275  and  _277
REMARK  123  A    between atoms: _277  and  _278
REMARK  124  A    between atoms: _277  and  _280
REMARK  125  A    between atoms: _280  and  _281
REMARK  126  A    between atoms: _286  and  _288
REMARK  127  A    between atoms: _288  and  _289
REMARK  128  A    between atoms: _292  and  _294
REMARK  129  A    between atoms: _294  and  _295
REMARK  130  A    between atoms: _294  and  _297
REMARK  131  A    between atoms: _297  and  _298
REMARK  132  A    between atoms: _298  and  _299
REMARK  133  A    between atoms: _301  and  _303
REMARK  134  A    between atoms: _303  and  _304
REMARK  135  A    between atoms: _303  and  _306
REMARK  136  A    between atoms: _306  and  _307
REMARK  137  A    between atoms: _317  and  _319
REMARK  138  A    between atoms: _319  and  _320
REMARK  139  A    between atoms: _319  and  _322
REMARK  140  A    between atoms: _322  and  _323
REMARK  141  A    between atoms: _326  and  _328
REMARK  142  A    between atoms: _328  and  _329
REMARK  143  A    between atoms: _328  and  _331
REMARK  144  A    between atoms: _331  and  _332
REMARK  145  A    between atoms: _332  and  _333
REMARK  146  A    between atoms: _338  and  _340
REMARK  147  A    between atoms: _340  and  _341
REMARK  148  A    between atoms: _340  and  _343
REMARK  149  A    between atoms: _343  and  _344
REMARK  150  A    between atoms: _344  and  _345
REMARK  151  A    between atoms: _350  and  _352
REMARK  152  A    between atoms: _352  and  _353
REMARK  153  A    between atoms: _352  and  _355
REMARK  154  A    between atoms: _355  and  _356
REMARK  155  A    between atoms: _362  and  _364
REMARK  156  A    between atoms: _364  and  _365
REMARK  157  A    between atoms: _364  and  _367
REMARK  158  A    between atoms: _369  and  _371
REMARK  159  A    between atoms: _371  and  _372
REMARK  160  A    between atoms: _371  and  _374
REMARK  161  A    between atoms: _374  and  _375
REMARK  162  A    between atoms: _375  and  _376
REMARK  163  A    between atoms: _378  and  _380
REMARK  164  A    between atoms: _380  and  _381
REMARK  165  A    between atoms: _380  and  _383
REMARK  166  A    between atoms: _383  and  _384
REMARK  167  A    between atoms: _384  and  _385
REMARK  168  A    between atoms: _384  and  _386
REMARK  169  A    between atoms: _389  and  _391
REMARK  170  A    between atoms: _391  and  _392
REMARK  171  A    between atoms: _391  and  _394
REMARK  172  A    between atoms: _394  and  _395
REMARK  173  A    between atoms: _397  and  _399
REMARK  174  A    between atoms: _399  and  _400
REMARK  175  A    between atoms: _399  and  _402
REMARK  176  A    between atoms: _402  and  _403
REMARK  177  A    between atoms: _406  and  _408
REMARK  178  A    between atoms: _408  and  _409
REMARK  179  A    between atoms: _408  and  _411
REMARK  180  A    between atoms: _411  and  _412
REMARK  181  A    between atoms: _414  and  _416
REMARK  182  A    between atoms: _416  and  _417
REMARK  183  A    between atoms: _416  and  _419
REMARK  184  A    between atoms: _419  and  _420
REMARK                            x       y       z     vdW  Elec       q    Type
REMARK                         _______ _______ _______ _____ _____    ______ ____
ROOT
ATOM      1  O   HOH     1      -3.723 -29.314 -29.999  0.00  0.00    +0.000 OA
ENDROOT
TORSDOF 0
REMARK  Name = ../refined-set-2016/3vdb/3vdb_pocket.pdb
REMARK  184 active torsions:
REMARK  status: ('A' for Active; 'I' for Inactive)
REMARK    1  A    between atoms: _1  and  _3
REMARK    2  A    between atoms: _3  and  _4
REMARK    3  A    between atoms: _3  and  _6
REMARK    4  A    between atoms: _6  and  _7
REMARK    5  A    between atoms: _12  and  _13
REMARK    6  A    between atoms: _15  and  _17
REMARK    7  A    between atoms: _17  and  _18
REMARK    8  A    between atoms: _17  and  _20
REMARK    9  A    between atoms: _20  and  _21
REMARK   10  A    between atoms: _24  and  _26
REMARK   11  A    between atoms: _26  and  _27
REMARK   12  A    between atoms: _26  and  _29
REMARK   13  A    between atoms: _29  and  _30
REMARK   14  A    between atoms: _35  and  _37
REMARK   15  A    between atoms: _37  and  _38
REMARK   16  A    between atoms: _37  and  _40
REMARK   17  A    between atoms: _43  and  _45
REMARK   18  A    between atoms: _45  and  _46
REMARK   19  A    between atoms: _45  and  _48
REMARK   20  A    between atoms: _48  and  _49
REMARK   21  A    between atoms: _52  and  _54
REMARK   22  A    between atoms: _54  and  _55
REMARK   23  A    between atoms: _54  and  _57
REMARK   24  A    between atoms: _57  and  _58
REMARK   25  A    between atoms: _58  and  _59
REMARK   26  A    between atoms: _64  and  _66
REMARK   27  A    between atoms: _66  and  _67
REMARK   28  A    between atoms: _66  and  _69
REMARK   29  A    between atoms: _69  and  _70
REMARK   30  A    between atoms: _73  and  _75
REMARK   31  A    between atoms: _75  and  _76
REMARK   32  A    between atoms: _75  and  _78
REMARK   33  A    between atoms: _78  and  _79
REMARK   34  A    between atoms: _79  and  _80
REMARK   35  A    between atoms: _82  and  _84
REMARK   36  A    between atoms: _84  and  _85
REMARK   37  A    between atoms: _84  and  _87
REMARK   38  A    between atoms: _87  and  _88
REMARK   39  A    between atoms: _88  and  _89
REMARK   40  A    between atoms: _89  and  _90
REMARK   41  A    between atoms: _99  and  _101
REMARK   42  A    between atoms: _101  and  _102
REMARK   43  A    between atoms: _101  and  _104
REMARK   44  A    between atoms: _104  and  _105
REMARK   45  A    between atoms: _110  and  _112
REMARK   46  A    between atoms: _112  and  _113
REMARK   47  A    between atoms: _112  and  _115
REMARK   48  A    between atoms: _115  and  _116
REMARK   49  A    between atoms: _121  and  _123
REMARK   50  A    between atoms: _123  and  _124
REMARK   51  A    between atoms: _123  and  _126
REMARK   52  A    between atoms: _126  and  _127
REMARK   53  A    between atoms: _127  and  _128
REMARK   54  A    between atoms: _128  and  _129
REMARK   55  A    between atoms: _138  and  _140
REMARK   56  A    between atoms: _140  and  _141
REMARK   57  A    between atoms: _140  and  _143
REMARK   58  A    between atoms: _143  and  _144
REMARK   59  A    between atoms: _146  and  _148
REMARK   60  A    between atoms: _148  and  _149
REMARK   61  A    between atoms: _148  and  _151
REMARK   62  A    between atoms: _151  and  _152
REMARK   63  A    between atoms: _157  and  _159
REMARK   64  A    between atoms: _159  and  _160
REMARK   65  A    between atoms: _159  and  _162
REMARK   66  A    between atoms: _162  and  _163
REMARK   67  A    between atoms: _163  and  _164
REMARK   68  A    between atoms: _167  and  _169
REMARK   69  A    between atoms: _169  and  _170
REMARK   70  A    between atoms: _169  and  _172
REMARK   71  A    between atoms: _172  and  _173
REMARK   72  A    between atoms: _173  and  _174
REMARK   73  A    between atoms: _174  and  _176
REMARK   74  A    between atoms: _176  and  MG_430
REMARK   75  A    between atoms: _177  and  _179
REMARK   76  A    between atoms: _179  and  _180
REMARK   77  A    between atoms: _179  and  _182
REMARK   78  A    between atoms: _182  and  _183
REMARK   79  A    between atoms: _188  and  _190
REMARK   80  A    between atoms: _190  and  _191
REMARK   81  A    between atoms: _193  and  _195
REMARK   82  A    between atoms: _195  and  _196
REMARK   83  A    between atoms: _195  and  _198
REMARK   84  A    between atoms: _198  and  _199
REMARK   85  A    between atoms: _202  and  _204
REMARK   86  A    between atoms: _204  and  _205
REMARK   87  A    between atoms: _204  and  _207
REMARK   88  A    between atoms: _207  and  _208
REMARK   89  A    between atoms: _208  and  _209
REMARK   90  A    between atoms: _209  and  _210
REMARK   91  A    between atoms: _210  and  MG_430
REMARK   92  A    between atoms: _212  and  _214
REMARK   93  A    between atoms: _214  and  _215
REMARK   94  A    between atoms: _214  and  _217
REMARK   95  A    between atoms: _217  and  _218
REMARK   96  A    between atoms: _218  and  _219
REMARK   97  A    between atoms: _222  and  _224
REMARK   98  A    between atoms: _224  and  _225
REMARK   99  A    between atoms: _224  and  _227
REMARK  100  A    between atoms: _227  and  _228
REMARK  101  A    between atoms: _228  and  _229
REMARK  102  A    between atoms: _231  and  _233
REMARK  103  A    between atoms: _233  and  _234
REMARK  104  A    between atoms: _233  and  _236
REMARK  105  A    between atoms: _236  and  _237
REMARK  106  A    between atoms: _242  and  _243
REMARK  107  A    between atoms: _245  and  _247
REMARK  108  A    between atoms: _247  and  _248
REMARK  109  A    between atoms: _247  and  _250
REMARK  110  A    between atoms: _250  and  _251
REMARK  111  A    between atoms: _251  and  _252
REMARK  112  A    between atoms: _252  and  _253
REMARK  113  A    between atoms: _253  and  _254
REMARK  114  A    between atoms: _258  and  _260
REMARK  115  A    between atoms: _260  and  _261
REMARK  116  A    between atoms: _260  and  _263
REMARK  117  A    between atoms: _265  and  _267
REMARK  118  A    between atoms: _267  and  _268
REMARK  119  A    between atoms: _267  and  _270
REMARK  120  A    between atoms: _270  and  _271
REMARK  121  A    between atoms: _271  and  _272
REMARK  122  A    between atoms: _275  and  _277
REMARK  123  A    between atoms: _277  and  _278
REMARK  124  A    between atoms: _277  and  _280
REMARK  125  A    between atoms: _280  and  _281
REMARK  126  A    between atoms: _286  and  _288
REMARK  127  A    between atoms: _288  and  _289
REMARK  128  A    between atoms: _292  and  _294
REMARK  129  A    between atoms: _294  and  _295
REMARK  130  A    between atoms: _294  and  _297
REMARK  131  A    between atoms: _297  and  _298
REMARK  132  A    between atoms: _298  and  _299
REMARK  133  A    between atoms: _301  and  _303
REMARK  134  A    between atoms: _303  and  _304
REMARK  135  A    between atoms: _303  and  _306
REMARK  136  A    between atoms: _306  and  _307
REMARK  137  A    between atoms: _317  and  _319
REMARK  138  A    between atoms: _319  and  _320
REMARK  139  A    between atoms: _319  and  _322
REMARK  140  A    between atoms: _322  and  _323
REMARK  141  A    between atoms: _326  and  _328
REMARK  142  A    between atoms: _328  and  _329
REMARK  143  A    between atoms: _328  and  _331
REMARK  144  A    between atoms: _331  and  _332
REMARK  145  A    between atoms: _332  and  _333
REMARK  146  A    between atoms: _338  and  _340
REMARK  147  A    between atoms: _340  and  _341
REMARK  148  A    between atoms: _340  and  _343
REMARK  149  A    between atoms: _343  and  _344
REMARK  150  A    between atoms: _344  and  _345
REMARK  151  A    between atoms: _350  and  _352
REMARK  152  A    between atoms: _352  and  _353
REMARK  153  A    between atoms: _352  and  _355
REMARK  154  A    between atoms: _355  and  _356
REMARK  155  A    between atoms: _362  and  _364
REMARK  156  A    between atoms: _364  and  _365
REMARK  157  A    between atoms: _364  and  _367
REMARK  158  A    between atoms: _369  and  _371
REMARK  159  A    between atoms: _371  and  _372
REMARK  160  A    between atoms: _371  and  _374
REMARK  161  A    between atoms: _374  and  _375
REMARK  162  A    between atoms: _375  and  _376
REMARK  163  A    between atoms: _378  and  _380
REMARK  164  A    between atoms: _380  and  _381
REMARK  165  A    between atoms: _380  and  _383
REMARK  166  A    between atoms: _383  and  _384
REMARK  167  A    between atoms: _384  and  _385
REMARK  168  A    between atoms: _384  and  _386
REMARK  169  A    between atoms: _389  and  _391
REMARK  170  A    between atoms: _391  and  _392
REMARK  171  A    between atoms: _391  and  _394
REMARK  172  A    between atoms: _394  and  _395
REMARK  173  A    between atoms: _397  and  _399
REMARK  174  A    between atoms: _399  and  _400
REMARK  175  A    between atoms: _399  and  _402
REMARK  176  A    between atoms: _402  and  _403
REMARK  177  A    between atoms: _406  and  _408
REMARK  178  A    between atoms: _408  and  _409
REMARK  179  A    between atoms: _408  and  _411
REMARK  180  A    between atoms: _411  and  _412
REMARK  181  A    between atoms: _414  and  _416
REMARK  182  A    between atoms: _416  and  _417
REMARK  183  A    between atoms: _416  and  _419
REMARK  184  A    between atoms: _419  and  _420
REMARK                            x       y       z     vdW  Elec       q    Type
REMARK                         _______ _______ _______ _____ _____    ______ ____
ROOT
ATOM      1  O   HOH     1     -12.119 -33.291 -23.213  0.00  0.00    +0.000 OA
ENDROOT
TORSDOF 0
REMARK  Name = ../refined-set-2016/3vdb/3vdb_pocket.pdb
REMARK  184 active torsions:
REMARK  status: ('A' for Active; 'I' for Inactive)
REMARK    1  A    between atoms: _1  and  _3
REMARK    2  A    between atoms: _3  and  _4
REMARK    3  A    between atoms: _3  and  _6
REMARK    4  A    between atoms: _6  and  _7
REMARK    5  A    between atoms: _12  and  _13
REMARK    6  A    between atoms: _15  and  _17
REMARK    7  A    between atoms: _17  and  _18
REMARK    8  A    between atoms: _17  and  _20
REMARK    9  A    between atoms: _20  and  _21
REMARK   10  A    between atoms: _24  and  _26
REMARK   11  A    between atoms: _26  and  _27
REMARK   12  A    between atoms: _26  and  _29
REMARK   13  A    between atoms: _29  and  _30
REMARK   14  A    between atoms: _35  and  _37
REMARK   15  A    between atoms: _37  and  _38
REMARK   16  A    between atoms: _37  and  _40
REMARK   17  A    between atoms: _43  and  _45
REMARK   18  A    between atoms: _45  and  _46
REMARK   19  A    between atoms: _45  and  _48
REMARK   20  A    between atoms: _48  and  _49
REMARK   21  A    between atoms: _52  and  _54
REMARK   22  A    between atoms: _54  and  _55
REMARK   23  A    between atoms: _54  and  _57
REMARK   24  A    between atoms: _57  and  _58
REMARK   25  A    between atoms: _58  and  _59
REMARK   26  A    between atoms: _64  and  _66
REMARK   27  A    between atoms: _66  and  _67
REMARK   28  A    between atoms: _66  and  _69
REMARK   29  A    between atoms: _69  and  _70
REMARK   30  A    between atoms: _73  and  _75
REMARK   31  A    between atoms: _75  and  _76
REMARK   32  A    between atoms: _75  and  _78
REMARK   33  A    between atoms: _78  and  _79
REMARK   34  A    between atoms: _79  and  _80
REMARK   35  A    between atoms: _82  and  _84
REMARK   36  A    between atoms: _84  and  _85
REMARK   37  A    between atoms: _84  and  _87
REMARK   38  A    between atoms: _87  and  _88
REMARK   39  A    between atoms: _88  and  _89
REMARK   40  A    between atoms: _89  and  _90
REMARK   41  A    between atoms: _99  and  _101
REMARK   42  A    between atoms: _101  and  _102
REMARK   43  A    between atoms: _101  and  _104
REMARK   44  A    between atoms: _104  and  _105
REMARK   45  A    between atoms: _110  and  _112
REMARK   46  A    between atoms: _112  and  _113
REMARK   47  A    between atoms: _112  and  _115
REMARK   48  A    between atoms: _115  and  _116
REMARK   49  A    between atoms: _121  and  _123
REMARK   50  A    between atoms: _123  and  _124
REMARK   51  A    between atoms: _123  and  _126
REMARK   52  A    between atoms: _126  and  _127
REMARK   53  A    between atoms: _127  and  _128
REMARK   54  A    between atoms: _128  and  _129
REMARK   55  A    between atoms: _138  and  _140
REMARK   56  A    between atoms: _140  and  _141
REMARK   57  A    between atoms: _140  and  _143
REMARK   58  A    between atoms: _143  and  _144
REMARK   59  A    between atoms: _146  and  _148
REMARK   60  A    between atoms: _148  and  _149
REMARK   61  A    between atoms: _148  and  _151
REMARK   62  A    between atoms: _151  and  _152
REMARK   63  A    between atoms: _157  and  _159
REMARK   64  A    between atoms: _159  and  _160
REMARK   65  A    between atoms: _159  and  _162
REMARK   66  A    between atoms: _162  and  _163
REMARK   67  A    between atoms: _163  and  _164
REMARK   68  A    between atoms: _167  and  _169
REMARK   69  A    between atoms: _169  and  _170
REMARK   70  A    between atoms: _169  and  _172
REMARK   71  A    between atoms: _172  and  _173
REMARK   72  A    between atoms: _173  and  _174
REMARK   73  A    between atoms: _174  and  _176
REMARK   74  A    between atoms: _176  and  MG_430
REMARK   75  A    between atoms: _177  and  _179
REMARK   76  A    between atoms: _179  and  _180
REMARK   77  A    between atoms: _179  and  _182
REMARK   78  A    between atoms: _182  and  _183
REMARK   79  A    between atoms: _188  and  _190
REMARK   80  A    between atoms: _190  and  _191
REMARK   81  A    between atoms: _193  and  _195
REMARK   82  A    between atoms: _195  and  _196
REMARK   83  A    between atoms: _195  and  _198
REMARK   84  A    between atoms: _198  and  _199
REMARK   85  A    between atoms: _202  and  _204
REMARK   86  A    between atoms: _204  and  _205
REMARK   87  A    between atoms: _204  and  _207
REMARK   88  A    between atoms: _207  and  _208
REMARK   89  A    between atoms: _208  and  _209
REMARK   90  A    between atoms: _209  and  _210
REMARK   91  A    between atoms: _210  and  MG_430
REMARK   92  A    between atoms: _212  and  _214
REMARK   93  A    between atoms: _214  and  _215
REMARK   94  A    between atoms: _214  and  _217
REMARK   95  A    between atoms: _217  and  _218
REMARK   96  A    between atoms: _218  and  _219
REMARK   97  A    between atoms: _222  and  _224
REMARK   98  A    between atoms: _224  and  _225
REMARK   99  A    between atoms: _224  and  _227
REMARK  100  A    between atoms: _227  and  _228
REMARK  101  A    between atoms: _228  and  _229
REMARK  102  A    between atoms: _231  and  _233
REMARK  103  A    between atoms: _233  and  _234
REMARK  104  A    between atoms: _233  and  _236
REMARK  105  A    between atoms: _236  and  _237
REMARK  106  A    between atoms: _242  and  _243
REMARK  107  A    between atoms: _245  and  _247
REMARK  108  A    between atoms: _247  and  _248
REMARK  109  A    between atoms: _247  and  _250
REMARK  110  A    between atoms: _250  and  _251
REMARK  111  A    between atoms: _251  and  _252
REMARK  112  A    between atoms: _252  and  _253
REMARK  113  A    between atoms: _253  and  _254
REMARK  114  A    between atoms: _258  and  _260
REMARK  115  A    between atoms: _260  and  _261
REMARK  116  A    between atoms: _260  and  _263
REMARK  117  A    between atoms: _265  and  _267
REMARK  118  A    between atoms: _267  and  _268
REMARK  119  A    between atoms: _267  and  _270
REMARK  120  A    between atoms: _270  and  _271
REMARK  121  A    between atoms: _271  and  _272
REMARK  122  A    between atoms: _275  and  _277
REMARK  123  A    between atoms: _277  and  _278
REMARK  124  A    between atoms: _277  and  _280
REMARK  125  A    between atoms: _280  and  _281
REMARK  126  A    between atoms: _286  and  _288
REMARK  127  A    between atoms: _288  and  _289
REMARK  128  A    between atoms: _292  and  _294
REMARK  129  A    between atoms: _294  and  _295
REMARK  130  A    between atoms: _294  and  _297
REMARK  131  A    between atoms: _297  and  _298
REMARK  132  A    between atoms: _298  and  _299
REMARK  133  A    between atoms: _301  and  _303
REMARK  134  A    between atoms: _303  and  _304
REMARK  135  A    between atoms: _303  and  _306
REMARK  136  A    between atoms: _306  and  _307
REMARK  137  A    between atoms: _317  and  _319
REMARK  138  A    between atoms: _319  and  _320
REMARK  139  A    between atoms: _319  and  _322
REMARK  140  A    between atoms: _322  and  _323
REMARK  141  A    between atoms: _326  and  _328
REMARK  142  A    between atoms: _328  and  _329
REMARK  143  A    between atoms: _328  and  _331
REMARK  144  A    between atoms: _331  and  _332
REMARK  145  A    between atoms: _332  and  _333
REMARK  146  A    between atoms: _338  and  _340
REMARK  147  A    between atoms: _340  and  _341
REMARK  148  A    between atoms: _340  and  _343
REMARK  149  A    between atoms: _343  and  _344
REMARK  150  A    between atoms: _344  and  _345
REMARK  151  A    between atoms: _350  and  _352
REMARK  152  A    between atoms: _352  and  _353
REMARK  153  A    between atoms: _352  and  _355
REMARK  154  A    between atoms: _355  and  _356
REMARK  155  A    between atoms: _362  and  _364
REMARK  156  A    between atoms: _364  and  _365
REMARK  157  A    between atoms: _364  and  _367
REMARK  158  A    between atoms: _369  and  _371
REMARK  159  A    between atoms: _371  and  _372
REMARK  160  A    between atoms: _371  and  _374
REMARK  161  A    between atoms: _374  and  _375
REMARK  162  A    between atoms: _375  and  _376
REMARK  163  A    between atoms: _378  and  _380
REMARK  164  A    between atoms: _380  and  _381
REMARK  165  A    between atoms: _380  and  _383
REMARK  166  A    between atoms: _383  and  _384
REMARK  167  A    between atoms: _384  and  _385
REMARK  168  A    between atoms: _384  and  _386
REMARK  169  A    between atoms: _389  and  _391
REMARK  170  A    between atoms: _391  and  _392
REMARK  171  A    between atoms: _391  and  _394
REMARK  172  A    between atoms: _394  and  _395
REMARK  173  A    between atoms: _397  and  _399
REMARK  174  A    between atoms: _399  and  _400
REMARK  175  A    between atoms: _399  and  _402
REMARK  176  A    between atoms: _402  and  _403
REMARK  177  A    between atoms: _406  and  _408
REMARK  178  A    between atoms: _408  and  _409
REMARK  179  A    between atoms: _408  and  _411
REMARK  180  A    between atoms: _411  and  _412
REMARK  181  A    between atoms: _414  and  _416
REMARK  182  A    between atoms: _416  and  _417
REMARK  183  A    between atoms: _416  and  _419
REMARK  184  A    between atoms: _419  and  _420
REMARK                            x       y       z     vdW  Elec       q    Type
REMARK                         _______ _______ _______ _____ _____    ______ ____
ROOT
ATOM      1  O   HOH     1      -9.986 -31.354 -23.922  0.00  0.00    +0.000 OA
ENDROOT
TORSDOF 0
REMARK  Name = ../refined-set-2016/3vdb/3vdb_pocket.pdb
REMARK  184 active torsions:
REMARK  status: ('A' for Active; 'I' for Inactive)
REMARK    1  A    between atoms: _1  and  _3
REMARK    2  A    between atoms: _3  and  _4
REMARK    3  A    between atoms: _3  and  _6
REMARK    4  A    between atoms: _6  and  _7
REMARK    5  A    between atoms: _12  and  _13
REMARK    6  A    between atoms: _15  and  _17
REMARK    7  A    between atoms: _17  and  _18
REMARK    8  A    between atoms: _17  and  _20
REMARK    9  A    between atoms: _20  and  _21
REMARK   10  A    between atoms: _24  and  _26
REMARK   11  A    between atoms: _26  and  _27
REMARK   12  A    between atoms: _26  and  _29
REMARK   13  A    between atoms: _29  and  _30
REMARK   14  A    between atoms: _35  and  _37
REMARK   15  A    between atoms: _37  and  _38
REMARK   16  A    between atoms: _37  and  _40
REMARK   17  A    between atoms: _43  and  _45
REMARK   18  A    between atoms: _45  and  _46
REMARK   19  A    between atoms: _45  and  _48
REMARK   20  A    between atoms: _48  and  _49
REMARK   21  A    between atoms: _52  and  _54
REMARK   22  A    between atoms: _54  and  _55
REMARK   23  A    between atoms: _54  and  _57
REMARK   24  A    between atoms: _57  and  _58
REMARK   25  A    between atoms: _58  and  _59
REMARK   26  A    between atoms: _64  and  _66
REMARK   27  A    between atoms: _66  and  _67
REMARK   28  A    between atoms: _66  and  _69
REMARK   29  A    between atoms: _69  and  _70
REMARK   30  A    between atoms: _73  and  _75
REMARK   31  A    between atoms: _75  and  _76
REMARK   32  A    between atoms: _75  and  _78
REMARK   33  A    between atoms: _78  and  _79
REMARK   34  A    between atoms: _79  and  _80
REMARK   35  A    between atoms: _82  and  _84
REMARK   36  A    between atoms: _84  and  _85
REMARK   37  A    between atoms: _84  and  _87
REMARK   38  A    between atoms: _87  and  _88
REMARK   39  A    between atoms: _88  and  _89
REMARK   40  A    between atoms: _89  and  _90
REMARK   41  A    between atoms: _99  and  _101
REMARK   42  A    between atoms: _101  and  _102
REMARK   43  A    between atoms: _101  and  _104
REMARK   44  A    between atoms: _104  and  _105
REMARK   45  A    between atoms: _110  and  _112
REMARK   46  A    between atoms: _112  and  _113
REMARK   47  A    between atoms: _112  and  _115
REMARK   48  A    between atoms: _115  and  _116
REMARK   49  A    between atoms: _121  and  _123
REMARK   50  A    between atoms: _123  and  _124
REMARK   51  A    between atoms: _123  and  _126
REMARK   52  A    between atoms: _126  and  _127
REMARK   53  A    between atoms: _127  and  _128
REMARK   54  A    between atoms: _128  and  _129
REMARK   55  A    between atoms: _138  and  _140
REMARK   56  A    between atoms: _140  and  _141
REMARK   57  A    between atoms: _140  and  _143
REMARK   58  A    between atoms: _143  and  _144
REMARK   59  A    between atoms: _146  and  _148
REMARK   60  A    between atoms: _148  and  _149
REMARK   61  A    between atoms: _148  and  _151
REMARK   62  A    between atoms: _151  and  _152
REMARK   63  A    between atoms: _157  and  _159
REMARK   64  A    between atoms: _159  and  _160
REMARK   65  A    between atoms: _159  and  _162
REMARK   66  A    between atoms: _162  and  _163
REMARK   67  A    between atoms: _163  and  _164
REMARK   68  A    between atoms: _167  and  _169
REMARK   69  A    between atoms: _169  and  _170
REMARK   70  A    between atoms: _169  and  _172
REMARK   71  A    between atoms: _172  and  _173
REMARK   72  A    between atoms: _173  and  _174
REMARK   73  A    between atoms: _174  and  _176
REMARK   74  A    between atoms: _176  and  MG_430
REMARK   75  A    between atoms: _177  and  _179
REMARK   76  A    between atoms: _179  and  _180
REMARK   77  A    between atoms: _179  and  _182
REMARK   78  A    between atoms: _182  and  _183
REMARK   79  A    between atoms: _188  and  _190
REMARK   80  A    between atoms: _190  and  _191
REMARK   81  A    between atoms: _193  and  _195
REMARK   82  A    between atoms: _195  and  _196
REMARK   83  A    between atoms: _195  and  _198
REMARK   84  A    between atoms: _198  and  _199
REMARK   85  A    between atoms: _202  and  _204
REMARK   86  A    between atoms: _204  and  _205
REMARK   87  A    between atoms: _204  and  _207
REMARK   88  A    between atoms: _207  and  _208
REMARK   89  A    between atoms: _208  and  _209
REMARK   90  A    between atoms: _209  and  _210
REMARK   91  A    between atoms: _210  and  MG_430
REMARK   92  A    between atoms: _212  and  _214
REMARK   93  A    between atoms: _214  and  _215
REMARK   94  A    between atoms: _214  and  _217
REMARK   95  A    between atoms: _217  and  _218
REMARK   96  A    between atoms: _218  and  _219
REMARK   97  A    between atoms: _222  and  _224
REMARK   98  A    between atoms: _224  and  _225
REMARK   99  A    between atoms: _224  and  _227
REMARK  100  A    between atoms: _227  and  _228
REMARK  101  A    between atoms: _228  and  _229
REMARK  102  A    between atoms: _231  and  _233
REMARK  103  A    between atoms: _233  and  _234
REMARK  104  A    between atoms: _233  and  _236
REMARK  105  A    between atoms: _236  and  _237
REMARK  106  A    between atoms: _242  and  _243
REMARK  107  A    between atoms: _245  and  _247
REMARK  108  A    between atoms: _247  and  _248
REMARK  109  A    between atoms: _247  and  _250
REMARK  110  A    between atoms: _250  and  _251
REMARK  111  A    between atoms: _251  and  _252
REMARK  112  A    between atoms: _252  and  _253
REMARK  113  A    between atoms: _253  and  _254
REMARK  114  A    between atoms: _258  and  _260
REMARK  115  A    between atoms: _260  and  _261
REMARK  116  A    between atoms: _260  and  _263
REMARK  117  A    between atoms: _265  and  _267
REMARK  118  A    between atoms: _267  and  _268
REMARK  119  A    between atoms: _267  and  _270
REMARK  120  A    between atoms: _270  and  _271
REMARK  121  A    between atoms: _271  and  _272
REMARK  122  A    between atoms: _275  and  _277
REMARK  123  A    between atoms: _277  and  _278
REMARK  124  A    between atoms: _277  and  _280
REMARK  125  A    between atoms: _280  and  _281
REMARK  126  A    between atoms: _286  and  _288
REMARK  127  A    between atoms: _288  and  _289
REMARK  128  A    between atoms: _292  and  _294
REMARK  129  A    between atoms: _294  and  _295
REMARK  130  A    between atoms: _294  and  _297
REMARK  131  A    between atoms: _297  and  _298
REMARK  132  A    between atoms: _298  and  _299
REMARK  133  A    between atoms: _301  and  _303
REMARK  134  A    between atoms: _303  and  _304
REMARK  135  A    between atoms: _303  and  _306
REMARK  136  A    between atoms: _306  and  _307
REMARK  137  A    between atoms: _317  and  _319
REMARK  138  A    between atoms: _319  and  _320
REMARK  139  A    between atoms: _319  and  _322
REMARK  140  A    between atoms: _322  and  _323
REMARK  141  A    between atoms: _326  and  _328
REMARK  142  A    between atoms: _328  and  _329
REMARK  143  A    between atoms: _328  and  _331
REMARK  144  A    between atoms: _331  and  _332
REMARK  145  A    between atoms: _332  and  _333
REMARK  146  A    between atoms: _338  and  _340
REMARK  147  A    between atoms: _340  and  _341
REMARK  148  A    between atoms: _340  and  _343
REMARK  149  A    between atoms: _343  and  _344
REMARK  150  A    between atoms: _344  and  _345
REMARK  151  A    between atoms: _350  and  _352
REMARK  152  A    between atoms: _352  and  _353
REMARK  153  A    between atoms: _352  and  _355
REMARK  154  A    between atoms: _355  and  _356
REMARK  155  A    between atoms: _362  and  _364
REMARK  156  A    between atoms: _364  and  _365
REMARK  157  A    between atoms: _364  and  _367
REMARK  158  A    between atoms: _369  and  _371
REMARK  159  A    between atoms: _371  and  _372
REMARK  160  A    between atoms: _371  and  _374
REMARK  161  A    between atoms: _374  and  _375
REMARK  162  A    between atoms: _375  and  _376
REMARK  163  A    between atoms: _378  and  _380
REMARK  164  A    between atoms: _380  and  _381
REMARK  165  A    between atoms: _380  and  _383
REMARK  166  A    between atoms: _383  and  _384
REMARK  167  A    between atoms: _384  and  _385
REMARK  168  A    between atoms: _384  and  _386
REMARK  169  A    between atoms: _389  and  _391
REMARK  170  A    between atoms: _391  and  _392
REMARK  171  A    between atoms: _391  and  _394
REMARK  172  A    between atoms: _394  and  _395
REMARK  173  A    between atoms: _397  and  _399
REMARK  174  A    between atoms: _399  and  _400
REMARK  175  A    between atoms: _399  and  _402
REMARK  176  A    between atoms: _402  and  _403
REMARK  177  A    between atoms: _406  and  _408
REMARK  178  A    between atoms: _408  and  _409
REMARK  179  A    between atoms: _408  and  _411
REMARK  180  A    between atoms: _411  and  _412
REMARK  181  A    between atoms: _414  and  _416
REMARK  182  A    between atoms: _416  and  _417
REMARK  183  A    between atoms: _416  and  _419
REMARK  184  A    between atoms: _419  and  _420
REMARK                            x       y       z     vdW  Elec       q    Type
REMARK                         _______ _______ _______ _____ _____    ______ ____
ROOT
ATOM      1  O   HOH     1     -12.927 -30.691 -24.739  0.00  0.00    +0.000 OA
ENDROOT
TORSDOF 0
REMARK  Name = ../refined-set-2016/3vdb/3vdb_pocket.pdb
REMARK  184 active torsions:
REMARK  status: ('A' for Active; 'I' for Inactive)
REMARK    1  A    between atoms: _1  and  _3
REMARK    2  A    between atoms: _3  and  _4
REMARK    3  A    between atoms: _3  and  _6
REMARK    4  A    between atoms: _6  and  _7
REMARK    5  A    between atoms: _12  and  _13
REMARK    6  A    between atoms: _15  and  _17
REMARK    7  A    between atoms: _17  and  _18
REMARK    8  A    between atoms: _17  and  _20
REMARK    9  A    between atoms: _20  and  _21
REMARK   10  A    between atoms: _24  and  _26
REMARK   11  A    between atoms: _26  and  _27
REMARK   12  A    between atoms: _26  and  _29
REMARK   13  A    between atoms: _29  and  _30
REMARK   14  A    between atoms: _35  and  _37
REMARK   15  A    between atoms: _37  and  _38
REMARK   16  A    between atoms: _37  and  _40
REMARK   17  A    between atoms: _43  and  _45
REMARK   18  A    between atoms: _45  and  _46
REMARK   19  A    between atoms: _45  and  _48
REMARK   20  A    between atoms: _48  and  _49
REMARK   21  A    between atoms: _52  and  _54
REMARK   22  A    between atoms: _54  and  _55
REMARK   23  A    between atoms: _54  and  _57
REMARK   24  A    between atoms: _57  and  _58
REMARK   25  A    between atoms: _58  and  _59
REMARK   26  A    between atoms: _64  and  _66
REMARK   27  A    between atoms: _66  and  _67
REMARK   28  A    between atoms: _66  and  _69
REMARK   29  A    between atoms: _69  and  _70
REMARK   30  A    between atoms: _73  and  _75
REMARK   31  A    between atoms: _75  and  _76
REMARK   32  A    between atoms: _75  and  _78
REMARK   33  A    between atoms: _78  and  _79
REMARK   34  A    between atoms: _79  and  _80
REMARK   35  A    between atoms: _82  and  _84
REMARK   36  A    between atoms: _84  and  _85
REMARK   37  A    between atoms: _84  and  _87
REMARK   38  A    between atoms: _87  and  _88
REMARK   39  A    between atoms: _88  and  _89
REMARK   40  A    between atoms: _89  and  _90
REMARK   41  A    between atoms: _99  and  _101
REMARK   42  A    between atoms: _101  and  _102
REMARK   43  A    between atoms: _101  and  _104
REMARK   44  A    between atoms: _104  and  _105
REMARK   45  A    between atoms: _110  and  _112
REMARK   46  A    between atoms: _112  and  _113
REMARK   47  A    between atoms: _112  and  _115
REMARK   48  A    between atoms: _115  and  _116
REMARK   49  A    between atoms: _121  and  _123
REMARK   50  A    between atoms: _123  and  _124
REMARK   51  A    between atoms: _123  and  _126
REMARK   52  A    between atoms: _126  and  _127
REMARK   53  A    between atoms: _127  and  _128
REMARK   54  A    between atoms: _128  and  _129
REMARK   55  A    between atoms: _138  and  _140
REMARK   56  A    between atoms: _140  and  _141
REMARK   57  A    between atoms: _140  and  _143
REMARK   58  A    between atoms: _143  and  _144
REMARK   59  A    between atoms: _146  and  _148
REMARK   60  A    between atoms: _148  and  _149
REMARK   61  A    between atoms: _148  and  _151
REMARK   62  A    between atoms: _151  and  _152
REMARK   63  A    between atoms: _157  and  _159
REMARK   64  A    between atoms: _159  and  _160
REMARK   65  A    between atoms: _159  and  _162
REMARK   66  A    between atoms: _162  and  _163
REMARK   67  A    between atoms: _163  and  _164
REMARK   68  A    between atoms: _167  and  _169
REMARK   69  A    between atoms: _169  and  _170
REMARK   70  A    between atoms: _169  and  _172
REMARK   71  A    between atoms: _172  and  _173
REMARK   72  A    between atoms: _173  and  _174
REMARK   73  A    between atoms: _174  and  _176
REMARK   74  A    between atoms: _176  and  MG_430
REMARK   75  A    between atoms: _177  and  _179
REMARK   76  A    between atoms: _179  and  _180
REMARK   77  A    between atoms: _179  and  _182
REMARK   78  A    between atoms: _182  and  _183
REMARK   79  A    between atoms: _188  and  _190
REMARK   80  A    between atoms: _190  and  _191
REMARK   81  A    between atoms: _193  and  _195
REMARK   82  A    between atoms: _195  and  _196
REMARK   83  A    between atoms: _195  and  _198
REMARK   84  A    between atoms: _198  and  _199
REMARK   85  A    between atoms: _202  and  _204
REMARK   86  A    between atoms: _204  and  _205
REMARK   87  A    between atoms: _204  and  _207
REMARK   88  A    between atoms: _207  and  _208
REMARK   89  A    between atoms: _208  and  _209
REMARK   90  A    between atoms: _209  and  _210
REMARK   91  A    between atoms: _210  and  MG_430
REMARK   92  A    between atoms: _212  and  _214
REMARK   93  A    between atoms: _214  and  _215
REMARK   94  A    between atoms: _214  and  _217
REMARK   95  A    between atoms: _217  and  _218
REMARK   96  A    between atoms: _218  and  _219
REMARK   97  A    between atoms: _222  and  _224
REMARK   98  A    between atoms: _224  and  _225
REMARK   99  A    between atoms: _224  and  _227
REMARK  100  A    between atoms: _227  and  _228
REMARK  101  A    between atoms: _228  and  _229
REMARK  102  A    between atoms: _231  and  _233
REMARK  103  A    between atoms: _233  and  _234
REMARK  104  A    between atoms: _233  and  _236
REMARK  105  A    between atoms: _236  and  _237
REMARK  106  A    between atoms: _242  and  _243
REMARK  107  A    between atoms: _245  and  _247
REMARK  108  A    between atoms: _247  and  _248
REMARK  109  A    between atoms: _247  and  _250
REMARK  110  A    between atoms: _250  and  _251
REMARK  111  A    between atoms: _251  and  _252
REMARK  112  A    between atoms: _252  and  _253
REMARK  113  A    between atoms: _253  and  _254
REMARK  114  A    between atoms: _258  and  _260
REMARK  115  A    between atoms: _260  and  _261
REMARK  116  A    between atoms: _260  and  _263
REMARK  117  A    between atoms: _265  and  _267
REMARK  118  A    between atoms: _267  and  _268
REMARK  119  A    between atoms: _267  and  _270
REMARK  120  A    between atoms: _270  and  _271
REMARK  121  A    between atoms: _271  and  _272
REMARK  122  A    between atoms: _275  and  _277
REMARK  123  A    between atoms: _277  and  _278
REMARK  124  A    between atoms: _277  and  _280
REMARK  125  A    between atoms: _280  and  _281
REMARK  126  A    between atoms: _286  and  _288
REMARK  127  A    between atoms: _288  and  _289
REMARK  128  A    between atoms: _292  and  _294
REMARK  129  A    between atoms: _294  and  _295
REMARK  130  A    between atoms: _294  and  _297
REMARK  131  A    between atoms: _297  and  _298
REMARK  132  A    between atoms: _298  and  _299
REMARK  133  A    between atoms: _301  and  _303
REMARK  134  A    between atoms: _303  and  _304
REMARK  135  A    between atoms: _303  and  _306
REMARK  136  A    between atoms: _306  and  _307
REMARK  137  A    between atoms: _317  and  _319
REMARK  138  A    between atoms: _319  and  _320
REMARK  139  A    between atoms: _319  and  _322
REMARK  140  A    between atoms: _322  and  _323
REMARK  141  A    between atoms: _326  and  _328
REMARK  142  A    between atoms: _328  and  _329
REMARK  143  A    between atoms: _328  and  _331
REMARK  144  A    between atoms: _331  and  _332
REMARK  145  A    between atoms: _332  and  _333
REMARK  146  A    between atoms: _338  and  _340
REMARK  147  A    between atoms: _340  and  _341
REMARK  148  A    between atoms: _340  and  _343
REMARK  149  A    between atoms: _343  and  _344
REMARK  150  A    between atoms: _344  and  _345
REMARK  151  A    between atoms: _350  and  _352
REMARK  152  A    between atoms: _352  and  _353
REMARK  153  A    between atoms: _352  and  _355
REMARK  154  A    between atoms: _355  and  _356
REMARK  155  A    between atoms: _362  and  _364
REMARK  156  A    between atoms: _364  and  _365
REMARK  157  A    between atoms: _364  and  _367
REMARK  158  A    between atoms: _369  and  _371
REMARK  159  A    between atoms: _371  and  _372
REMARK  160  A    between atoms: _371  and  _374
REMARK  161  A    between atoms: _374  and  _375
REMARK  162  A    between atoms: _375  and  _376
REMARK  163  A    between atoms: _378  and  _380
REMARK  164  A    between atoms: _380  and  _381
REMARK  165  A    between atoms: _380  and  _383
REMARK  166  A    between atoms: _383  and  _384
REMARK  167  A    between atoms: _384  and  _385
REMARK  168  A    between atoms: _384  and  _386
REMARK  169  A    between atoms: _389  and  _391
REMARK  170  A    between atoms: _391  and  _392
REMARK  171  A    between atoms: _391  and  _394
REMARK  172  A    between atoms: _394  and  _395
REMARK  173  A    between atoms: _397  and  _399
REMARK  174  A    between atoms: _399  and  _400
REMARK  175  A    between atoms: _399  and  _402
REMARK  176  A    between atoms: _402  and  _403
REMARK  177  A    between atoms: _406  and  _408
REMARK  178  A    between atoms: _408  and  _409
REMARK  179  A    between atoms: _408  and  _411
REMARK  180  A    between atoms: _411  and  _412
REMARK  181  A    between atoms: _414  and  _416
REMARK  182  A    between atoms: _416  and  _417
REMARK  183  A    between atoms: _416  and  _419
REMARK  184  A    between atoms: _419  and  _420
REMARK                            x       y       z     vdW  Elec       q    Type
REMARK                         _______ _______ _______ _____ _____    ______ ____
ROOT
ATOM      1  O   HOH     1     -15.378 -24.267 -23.782  0.00  0.00    +0.000 OA
ENDROOT
TORSDOF 0
REMARK  Name = ../refined-set-2016/3vdb/3vdb_pocket.pdb
REMARK  184 active torsions:
REMARK  status: ('A' for Active; 'I' for Inactive)
REMARK    1  A    between atoms: _1  and  _3
REMARK    2  A    between atoms: _3  and  _4
REMARK    3  A    between atoms: _3  and  _6
REMARK    4  A    between atoms: _6  and  _7
REMARK    5  A    between atoms: _12  and  _13
REMARK    6  A    between atoms: _15  and  _17
REMARK    7  A    between atoms: _17  and  _18
REMARK    8  A    between atoms: _17  and  _20
REMARK    9  A    between atoms: _20  and  _21
REMARK   10  A    between atoms: _24  and  _26
REMARK   11  A    between atoms: _26  and  _27
REMARK   12  A    between atoms: _26  and  _29
REMARK   13  A    between atoms: _29  and  _30
REMARK   14  A    between atoms: _35  and  _37
REMARK   15  A    between atoms: _37  and  _38
REMARK   16  A    between atoms: _37  and  _40
REMARK   17  A    between atoms: _43  and  _45
REMARK   18  A    between atoms: _45  and  _46
REMARK   19  A    between atoms: _45  and  _48
REMARK   20  A    between atoms: _48  and  _49
REMARK   21  A    between atoms: _52  and  _54
REMARK   22  A    between atoms: _54  and  _55
REMARK   23  A    between atoms: _54  and  _57
REMARK   24  A    between atoms: _57  and  _58
REMARK   25  A    between atoms: _58  and  _59
REMARK   26  A    between atoms: _64  and  _66
REMARK   27  A    between atoms: _66  and  _67
REMARK   28  A    between atoms: _66  and  _69
REMARK   29  A    between atoms: _69  and  _70
REMARK   30  A    between atoms: _73  and  _75
REMARK   31  A    between atoms: _75  and  _76
REMARK   32  A    between atoms: _75  and  _78
REMARK   33  A    between atoms: _78  and  _79
REMARK   34  A    between atoms: _79  and  _80
REMARK   35  A    between atoms: _82  and  _84
REMARK   36  A    between atoms: _84  and  _85
REMARK   37  A    between atoms: _84  and  _87
REMARK   38  A    between atoms: _87  and  _88
REMARK   39  A    between atoms: _88  and  _89
REMARK   40  A    between atoms: _89  and  _90
REMARK   41  A    between atoms: _99  and  _101
REMARK   42  A    between atoms: _101  and  _102
REMARK   43  A    between atoms: _101  and  _104
REMARK   44  A    between atoms: _104  and  _105
REMARK   45  A    between atoms: _110  and  _112
REMARK   46  A    between atoms: _112  and  _113
REMARK   47  A    between atoms: _112  and  _115
REMARK   48  A    between atoms: _115  and  _116
REMARK   49  A    between atoms: _121  and  _123
REMARK   50  A    between atoms: _123  and  _124
REMARK   51  A    between atoms: _123  and  _126
REMARK   52  A    between atoms: _126  and  _127
REMARK   53  A    between atoms: _127  and  _128
REMARK   54  A    between atoms: _128  and  _129
REMARK   55  A    between atoms: _138  and  _140
REMARK   56  A    between atoms: _140  and  _141
REMARK   57  A    between atoms: _140  and  _143
REMARK   58  A    between atoms: _143  and  _144
REMARK   59  A    between atoms: _146  and  _148
REMARK   60  A    between atoms: _148  and  _149
REMARK   61  A    between atoms: _148  and  _151
REMARK   62  A    between atoms: _151  and  _152
REMARK   63  A    between atoms: _157  and  _159
REMARK   64  A    between atoms: _159  and  _160
REMARK   65  A    between atoms: _159  and  _162
REMARK   66  A    between atoms: _162  and  _163
REMARK   67  A    between atoms: _163  and  _164
REMARK   68  A    between atoms: _167  and  _169
REMARK   69  A    between atoms: _169  and  _170
REMARK   70  A    between atoms: _169  and  _172
REMARK   71  A    between atoms: _172  and  _173
REMARK   72  A    between atoms: _173  and  _174
REMARK   73  A    between atoms: _174  and  _176
REMARK   74  A    between atoms: _176  and  MG_430
REMARK   75  A    between atoms: _177  and  _179
REMARK   76  A    between atoms: _179  and  _180
REMARK   77  A    between atoms: _179  and  _182
REMARK   78  A    between atoms: _182  and  _183
REMARK   79  A    between atoms: _188  and  _190
REMARK   80  A    between atoms: _190  and  _191
REMARK   81  A    between atoms: _193  and  _195
REMARK   82  A    between atoms: _195  and  _196
REMARK   83  A    between atoms: _195  and  _198
REMARK   84  A    between atoms: _198  and  _199
REMARK   85  A    between atoms: _202  and  _204
REMARK   86  A    between atoms: _204  and  _205
REMARK   87  A    between atoms: _204  and  _207
REMARK   88  A    between atoms: _207  and  _208
REMARK   89  A    between atoms: _208  and  _209
REMARK   90  A    between atoms: _209  and  _210
REMARK   91  A    between atoms: _210  and  MG_430
REMARK   92  A    between atoms: _212  and  _214
REMARK   93  A    between atoms: _214  and  _215
REMARK   94  A    between atoms: _214  and  _217
REMARK   95  A    between atoms: _217  and  _218
REMARK   96  A    between atoms: _218  and  _219
REMARK   97  A    between atoms: _222  and  _224
REMARK   98  A    between atoms: _224  and  _225
REMARK   99  A    between atoms: _224  and  _227
REMARK  100  A    between atoms: _227  and  _228
REMARK  101  A    between atoms: _228  and  _229
REMARK  102  A    between atoms: _231  and  _233
REMARK  103  A    between atoms: _233  and  _234
REMARK  104  A    between atoms: _233  and  _236
REMARK  105  A    between atoms: _236  and  _237
REMARK  106  A    between atoms: _242  and  _243
REMARK  107  A    between atoms: _245  and  _247
REMARK  108  A    between atoms: _247  and  _248
REMARK  109  A    between atoms: _247  and  _250
REMARK  110  A    between atoms: _250  and  _251
REMARK  111  A    between atoms: _251  and  _252
REMARK  112  A    between atoms: _252  and  _253
REMARK  113  A    between atoms: _253  and  _254
REMARK  114  A    between atoms: _258  and  _260
REMARK  115  A    between atoms: _260  and  _261
REMARK  116  A    between atoms: _260  and  _263
REMARK  117  A    between atoms: _265  and  _267
REMARK  118  A    between atoms: _267  and  _268
REMARK  119  A    between atoms: _267  and  _270
REMARK  120  A    between atoms: _270  and  _271
REMARK  121  A    between atoms: _271  and  _272
REMARK  122  A    between atoms: _275  and  _277
REMARK  123  A    between atoms: _277  and  _278
REMARK  124  A    between atoms: _277  and  _280
REMARK  125  A    between atoms: _280  and  _281
REMARK  126  A    between atoms: _286  and  _288
REMARK  127  A    between atoms: _288  and  _289
REMARK  128  A    between atoms: _292  and  _294
REMARK  129  A    between atoms: _294  and  _295
REMARK  130  A    between atoms: _294  and  _297
REMARK  131  A    between atoms: _297  and  _298
REMARK  132  A    between atoms: _298  and  _299
REMARK  133  A    between atoms: _301  and  _303
REMARK  134  A    between atoms: _303  and  _304
REMARK  135  A    between atoms: _303  and  _306
REMARK  136  A    between atoms: _306  and  _307
REMARK  137  A    between atoms: _317  and  _319
REMARK  138  A    between atoms: _319  and  _320
REMARK  139  A    between atoms: _319  and  _322
REMARK  140  A    between atoms: _322  and  _323
REMARK  141  A    between atoms: _326  and  _328
REMARK  142  A    between atoms: _328  and  _329
REMARK  143  A    between atoms: _328  and  _331
REMARK  144  A    between atoms: _331  and  _332
REMARK  145  A    between atoms: _332  and  _333
REMARK  146  A    between atoms: _338  and  _340
REMARK  147  A    between atoms: _340  and  _341
REMARK  148  A    between atoms: _340  and  _343
REMARK  149  A    between atoms: _343  and  _344
REMARK  150  A    between atoms: _344  and  _345
REMARK  151  A    between atoms: _350  and  _352
REMARK  152  A    between atoms: _352  and  _353
REMARK  153  A    between atoms: _352  and  _355
REMARK  154  A    between atoms: _355  and  _356
REMARK  155  A    between atoms: _362  and  _364
REMARK  156  A    between atoms: _364  and  _365
REMARK  157  A    between atoms: _364  and  _367
REMARK  158  A    between atoms: _369  and  _371
REMARK  159  A    between atoms: _371  and  _372
REMARK  160  A    between atoms: _371  and  _374
REMARK  161  A    between atoms: _374  and  _375
REMARK  162  A    between atoms: _375  and  _376
REMARK  163  A    between atoms: _378  and  _380
REMARK  164  A    between atoms: _380  and  _381
REMARK  165  A    between atoms: _380  and  _383
REMARK  166  A    between atoms: _383  and  _384
REMARK  167  A    between atoms: _384  and  _385
REMARK  168  A    between atoms: _384  and  _386
REMARK  169  A    between atoms: _389  and  _391
REMARK  170  A    between atoms: _391  and  _392
REMARK  171  A    between atoms: _391  and  _394
REMARK  172  A    between atoms: _394  and  _395
REMARK  173  A    between atoms: _397  and  _399
REMARK  174  A    between atoms: _399  and  _400
REMARK  175  A    between atoms: _399  and  _402
REMARK  176  A    between atoms: _402  and  _403
REMARK  177  A    between atoms: _406  and  _408
REMARK  178  A    between atoms: _408  and  _409
REMARK  179  A    between atoms: _408  and  _411
REMARK  180  A    between atoms: _411  and  _412
REMARK  181  A    between atoms: _414  and  _416
REMARK  182  A    between atoms: _416  and  _417
REMARK  183  A    between atoms: _416  and  _419
REMARK  184  A    between atoms: _419  and  _420
REMARK                            x       y       z     vdW  Elec       q    Type
REMARK                         _______ _______ _______ _____ _____    ______ ____
ROOT
ATOM      1  O   HOH     1     -14.214 -25.504 -20.626  0.00  0.00    +0.000 OA
ENDROOT
TORSDOF 0
REMARK  Name = ../refined-set-2016/3vdb/3vdb_pocket.pdb
REMARK  184 active torsions:
REMARK  status: ('A' for Active; 'I' for Inactive)
REMARK    1  A    between atoms: _1  and  _3
REMARK    2  A    between atoms: _3  and  _4
REMARK    3  A    between atoms: _3  and  _6
REMARK    4  A    between atoms: _6  and  _7
REMARK    5  A    between atoms: _12  and  _13
REMARK    6  A    between atoms: _15  and  _17
REMARK    7  A    between atoms: _17  and  _18
REMARK    8  A    between atoms: _17  and  _20
REMARK    9  A    between atoms: _20  and  _21
REMARK   10  A    between atoms: _24  and  _26
REMARK   11  A    between atoms: _26  and  _27
REMARK   12  A    between atoms: _26  and  _29
REMARK   13  A    between atoms: _29  and  _30
REMARK   14  A    between atoms: _35  and  _37
REMARK   15  A    between atoms: _37  and  _38
REMARK   16  A    between atoms: _37  and  _40
REMARK   17  A    between atoms: _43  and  _45
REMARK   18  A    between atoms: _45  and  _46
REMARK   19  A    between atoms: _45  and  _48
REMARK   20  A    between atoms: _48  and  _49
REMARK   21  A    between atoms: _52  and  _54
REMARK   22  A    between atoms: _54  and  _55
REMARK   23  A    between atoms: _54  and  _57
REMARK   24  A    between atoms: _57  and  _58
REMARK   25  A    between atoms: _58  and  _59
REMARK   26  A    between atoms: _64  and  _66
REMARK   27  A    between atoms: _66  and  _67
REMARK   28  A    between atoms: _66  and  _69
REMARK   29  A    between atoms: _69  and  _70
REMARK   30  A    between atoms: _73  and  _75
REMARK   31  A    between atoms: _75  and  _76
REMARK   32  A    between atoms: _75  and  _78
REMARK   33  A    between atoms: _78  and  _79
REMARK   34  A    between atoms: _79  and  _80
REMARK   35  A    between atoms: _82  and  _84
REMARK   36  A    between atoms: _84  and  _85
REMARK   37  A    between atoms: _84  and  _87
REMARK   38  A    between atoms: _87  and  _88
REMARK   39  A    between atoms: _88  and  _89
REMARK   40  A    between atoms: _89  and  _90
REMARK   41  A    between atoms: _99  and  _101
REMARK   42  A    between atoms: _101  and  _102
REMARK   43  A    between atoms: _101  and  _104
REMARK   44  A    between atoms: _104  and  _105
REMARK   45  A    between atoms: _110  and  _112
REMARK   46  A    between atoms: _112  and  _113
REMARK   47  A    between atoms: _112  and  _115
REMARK   48  A    between atoms: _115  and  _116
REMARK   49  A    between atoms: _121  and  _123
REMARK   50  A    between atoms: _123  and  _124
REMARK   51  A    between atoms: _123  and  _126
REMARK   52  A    between atoms: _126  and  _127
REMARK   53  A    between atoms: _127  and  _128
REMARK   54  A    between atoms: _128  and  _129
REMARK   55  A    between atoms: _138  and  _140
REMARK   56  A    between atoms: _140  and  _141
REMARK   57  A    between atoms: _140  and  _143
REMARK   58  A    between atoms: _143  and  _144
REMARK   59  A    between atoms: _146  and  _148
REMARK   60  A    between atoms: _148  and  _149
REMARK   61  A    between atoms: _148  and  _151
REMARK   62  A    between atoms: _151  and  _152
REMARK   63  A    between atoms: _157  and  _159
REMARK   64  A    between atoms: _159  and  _160
REMARK   65  A    between atoms: _159  and  _162
REMARK   66  A    between atoms: _162  and  _163
REMARK   67  A    between atoms: _163  and  _164
REMARK   68  A    between atoms: _167  and  _169
REMARK   69  A    between atoms: _169  and  _170
REMARK   70  A    between atoms: _169  and  _172
REMARK   71  A    between atoms: _172  and  _173
REMARK   72  A    between atoms: _173  and  _174
REMARK   73  A    between atoms: _174  and  _176
REMARK   74  A    between atoms: _176  and  MG_430
REMARK   75  A    between atoms: _177  and  _179
REMARK   76  A    between atoms: _179  and  _180
REMARK   77  A    between atoms: _179  and  _182
REMARK   78  A    between atoms: _182  and  _183
REMARK   79  A    between atoms: _188  and  _190
REMARK   80  A    between atoms: _190  and  _191
REMARK   81  A    between atoms: _193  and  _195
REMARK   82  A    between atoms: _195  and  _196
REMARK   83  A    between atoms: _195  and  _198
REMARK   84  A    between atoms: _198  and  _199
REMARK   85  A    between atoms: _202  and  _204
REMARK   86  A    between atoms: _204  and  _205
REMARK   87  A    between atoms: _204  and  _207
REMARK   88  A    between atoms: _207  and  _208
REMARK   89  A    between atoms: _208  and  _209
REMARK   90  A    between atoms: _209  and  _210
REMARK   91  A    between atoms: _210  and  MG_430
REMARK   92  A    between atoms: _212  and  _214
REMARK   93  A    between atoms: _214  and  _215
REMARK   94  A    between atoms: _214  and  _217
REMARK   95  A    between atoms: _217  and  _218
REMARK   96  A    between atoms: _218  and  _219
REMARK   97  A    between atoms: _222  and  _224
REMARK   98  A    between atoms: _224  and  _225
REMARK   99  A    between atoms: _224  and  _227
REMARK  100  A    between atoms: _227  and  _228
REMARK  101  A    between atoms: _228  and  _229
REMARK  102  A    between atoms: _231  and  _233
REMARK  103  A    between atoms: _233  and  _234
REMARK  104  A    between atoms: _233  and  _236
REMARK  105  A    between atoms: _236  and  _237
REMARK  106  A    between atoms: _242  and  _243
REMARK  107  A    between atoms: _245  and  _247
REMARK  108  A    between atoms: _247  and  _248
REMARK  109  A    between atoms: _247  and  _250
REMARK  110  A    between atoms: _250  and  _251
REMARK  111  A    between atoms: _251  and  _252
REMARK  112  A    between atoms: _252  and  _253
REMARK  113  A    between atoms: _253  and  _254
REMARK  114  A    between atoms: _258  and  _260
REMARK  115  A    between atoms: _260  and  _261
REMARK  116  A    between atoms: _260  and  _263
REMARK  117  A    between atoms: _265  and  _267
REMARK  118  A    between atoms: _267  and  _268
REMARK  119  A    between atoms: _267  and  _270
REMARK  120  A    between atoms: _270  and  _271
REMARK  121  A    between atoms: _271  and  _272
REMARK  122  A    between atoms: _275  and  _277
REMARK  123  A    between atoms: _277  and  _278
REMARK  124  A    between atoms: _277  and  _280
REMARK  125  A    between atoms: _280  and  _281
REMARK  126  A    between atoms: _286  and  _288
REMARK  127  A    between atoms: _288  and  _289
REMARK  128  A    between atoms: _292  and  _294
REMARK  129  A    between atoms: _294  and  _295
REMARK  130  A    between atoms: _294  and  _297
REMARK  131  A    between atoms: _297  and  _298
REMARK  132  A    between atoms: _298  and  _299
REMARK  133  A    between atoms: _301  and  _303
REMARK  134  A    between atoms: _303  and  _304
REMARK  135  A    between atoms: _303  and  _306
REMARK  136  A    between atoms: _306  and  _307
REMARK  137  A    between atoms: _317  and  _319
REMARK  138  A    between atoms: _319  and  _320
REMARK  139  A    between atoms: _319  and  _322
REMARK  140  A    between atoms: _322  and  _323
REMARK  141  A    between atoms: _326  and  _328
REMARK  142  A    between atoms: _328  and  _329
REMARK  143  A    between atoms: _328  and  _331
REMARK  144  A    between atoms: _331  and  _332
REMARK  145  A    between atoms: _332  and  _333
REMARK  146  A    between atoms: _338  and  _340
REMARK  147  A    between atoms: _340  and  _341
REMARK  148  A    between atoms: _340  and  _343
REMARK  149  A    between atoms: _343  and  _344
REMARK  150  A    between atoms: _344  and  _345
REMARK  151  A    between atoms: _350  and  _352
REMARK  152  A    between atoms: _352  and  _353
REMARK  153  A    between atoms: _352  and  _355
REMARK  154  A    between atoms: _355  and  _356
REMARK  155  A    between atoms: _362  and  _364
REMARK  156  A    between atoms: _364  and  _365
REMARK  157  A    between atoms: _364  and  _367
REMARK  158  A    between atoms: _369  and  _371
REMARK  159  A    between atoms: _371  and  _372
REMARK  160  A    between atoms: _371  and  _374
REMARK  161  A    between atoms: _374  and  _375
REMARK  162  A    between atoms: _375  and  _376
REMARK  163  A    between atoms: _378  and  _380
REMARK  164  A    between atoms: _380  and  _381
REMARK  165  A    between atoms: _380  and  _383
REMARK  166  A    between atoms: _383  and  _384
REMARK  167  A    between atoms: _384  and  _385
REMARK  168  A    between atoms: _384  and  _386
REMARK  169  A    between atoms: _389  and  _391
REMARK  170  A    between atoms: _391  and  _392
REMARK  171  A    between atoms: _391  and  _394
REMARK  172  A    between atoms: _394  and  _395
REMARK  173  A    between atoms: _397  and  _399
REMARK  174  A    between atoms: _399  and  _400
REMARK  175  A    between atoms: _399  and  _402
REMARK  176  A    between atoms: _402  and  _403
REMARK  177  A    between atoms: _406  and  _408
REMARK  178  A    between atoms: _408  and  _409
REMARK  179  A    between atoms: _408  and  _411
REMARK  180  A    between atoms: _411  and  _412
REMARK  181  A    between atoms: _414  and  _416
REMARK  182  A    between atoms: _416  and  _417
REMARK  183  A    between atoms: _416  and  _419
REMARK  184  A    between atoms: _419  and  _420
REMARK                            x       y       z     vdW  Elec       q    Type
REMARK                         _______ _______ _______ _____ _____    ______ ____
ROOT
ATOM      1  O   HOH     1     -13.988 -22.803 -20.722  0.00  0.00    +0.000 OA
ENDROOT
TORSDOF 0
