REMARK  Name = ../refined-set-2016/4qj0/4qj0_pocket.pdb
REMARK  220 active torsions:
REMARK  status: ('A' for Active; 'I' for Inactive)
REMARK    1  A    between atoms: _1  and  _5
REMARK    2  A    between atoms: _5  and  _6
REMARK    3  A    between atoms: _5  and  _8
REMARK    4  A    between atoms: _8  and  _9
REMARK    5  A    between atoms: _9  and  _10
REMARK    6  A    between atoms: _10  and  _11
REMARK    7  A    between atoms: _11  and  _12
REMARK    8  A    between atoms: _16  and  _18
REMARK    9  A    between atoms: _18  and  _19
REMARK   10  A    between atoms: _18  and  _21
REMARK   11  A    between atoms: _21  and  _22
REMARK   12  A    between atoms: _32  and  _34
REMARK   13  A    between atoms: _34  and  _35
REMARK   14  A    between atoms: _34  and  _37
REMARK   15  A    between atoms: _37  and  _38
REMARK   16  A    between atoms: _43  and  _44
REMARK   17  A    between atoms: _46  and  _48
REMARK   18  A    between atoms: _48  and  _49
REMARK   19  A    between atoms: _48  and  _51
REMARK   20  A    between atoms: _51  and  _52
REMARK   21  A    between atoms: _57  and  _58
REMARK   22  A    between atoms: _60  and  _62
REMARK   23  A    between atoms: _62  and  _63
REMARK   24  A    between atoms: _62  and  _65
REMARK   25  A    between atoms: _65  and  _66
REMARK   26  A    between atoms: _69  and  _70
REMARK   27  A    between atoms: _75  and  _77
REMARK   28  A    between atoms: _77  and  _78
REMARK   29  A    between atoms: _77  and  _80
REMARK   30  A    between atoms: _80  and  _81
REMARK   31  A    between atoms: _84  and  _86
REMARK   32  A    between atoms: _86  and  _87
REMARK   33  A    between atoms: _86  and  _89
REMARK   34  A    between atoms: _89  and  _90
REMARK   35  A    between atoms: _95  and  _97
REMARK   36  A    between atoms: _97  and  _98
REMARK   37  A    between atoms: _100  and  _102
REMARK   38  A    between atoms: _102  and  _103
REMARK   39  A    between atoms: _102  and  _105
REMARK   40  A    between atoms: _105  and  _106
REMARK   41  A    between atoms: _111  and  _113
REMARK   42  A    between atoms: _113  and  _114
REMARK   43  A    between atoms: _113  and  _116
REMARK   44  A    between atoms: _116  and  _117
REMARK   45  A    between atoms: _119  and  _121
REMARK   46  A    between atoms: _121  and  _122
REMARK   47  A    between atoms: _121  and  _124
REMARK   48  A    between atoms: _127  and  _129
REMARK   49  A    between atoms: _129  and  _130
REMARK   50  A    between atoms: _129  and  _132
REMARK   51  A    between atoms: _132  and  _133
REMARK   52  A    between atoms: _133  and  _134
REMARK   53  A    between atoms: _134  and  _135
REMARK   54  A    between atoms: _135  and  _136
REMARK   55  A    between atoms: _140  and  _142
REMARK   56  A    between atoms: _142  and  _143
REMARK   57  A    between atoms: _142  and  _145
REMARK   58  A    between atoms: _145  and  _146
REMARK   59  A    between atoms: _149  and  _151
REMARK   60  A    between atoms: _151  and  _152
REMARK   61  A    between atoms: _151  and  _154
REMARK   62  A    between atoms: _154  and  _155
REMARK   63  A    between atoms: _160  and  _162
REMARK   64  A    between atoms: _162  and  _163
REMARK   65  A    between atoms: _166  and  _168
REMARK   66  A    between atoms: _168  and  _169
REMARK   67  A    between atoms: _168  and  _171
REMARK   68  A    between atoms: _171  and  _172
REMARK   69  A    between atoms: _175  and  _177
REMARK   70  A    between atoms: _177  and  _178
REMARK   71  A    between atoms: _177  and  _180
REMARK   72  A    between atoms: _180  and  _181
REMARK   73  A    between atoms: _181  and  _182
REMARK   74  A    between atoms: _187  and  _189
REMARK   75  A    between atoms: _189  and  _190
REMARK   76  A    between atoms: _189  and  _192
REMARK   77  A    between atoms: _192  and  _193
REMARK   78  A    between atoms: _196  and  _198
REMARK   79  A    between atoms: _209  and  _212
REMARK   80  A    between atoms: _212  and  _213
REMARK   81  A    between atoms: _218  and  _219
REMARK   82  A    between atoms: _227  and  _229
REMARK   83  A    between atoms: _229  and  _230
REMARK   84  A    between atoms: _229  and  _232
REMARK   85  A    between atoms: _232  and  _233
REMARK   86  A    between atoms: _243  and  _245
REMARK   87  A    between atoms: _245  and  _246
REMARK   88  A    between atoms: _245  and  _248
REMARK   89  A    between atoms: _248  and  _249
REMARK   90  A    between atoms: _249  and  _250
REMARK   91  A    between atoms: _253  and  _255
REMARK   92  A    between atoms: _255  and  _256
REMARK   93  A    between atoms: _255  and  _258
REMARK   94  A    between atoms: _258  and  _259
REMARK   95  A    between atoms: _264  and  _266
REMARK   96  A    between atoms: _266  and  _267
REMARK   97  A    between atoms: _266  and  _269
REMARK   98  A    between atoms: _269  and  _270
REMARK   99  A    between atoms: _270  and  _271
REMARK  100  A    between atoms: _274  and  _276
REMARK  101  A    between atoms: _276  and  _277
REMARK  102  A    between atoms: _276  and  _279
REMARK  103  A    between atoms: _279  and  _280
REMARK  104  A    between atoms: _283  and  _285
REMARK  105  A    between atoms: _285  and  _286
REMARK  106  A    between atoms: _285  and  _288
REMARK  107  A    between atoms: _288  and  _289
REMARK  108  A    between atoms: _290  and  ZN_582
REMARK  109  A    between atoms: _294  and  _296
REMARK  110  A    between atoms: _296  and  _297
REMARK  111  A    between atoms: _296  and  _299
REMARK  112  A    between atoms: _299  and  _300
REMARK  113  A    between atoms: _303  and  _305
REMARK  114  A    between atoms: _305  and  _306
REMARK  115  A    between atoms: _305  and  _308
REMARK  116  A    between atoms: _311  and  _313
REMARK  117  A    between atoms: _313  and  _314
REMARK  118  A    between atoms: _313  and  _316
REMARK  119  A    between atoms: _316  and  _317
REMARK  120  A    between atoms: _322  and  _324
REMARK  121  A    between atoms: _324  and  _325
REMARK  122  A    between atoms: _324  and  _327
REMARK  123  A    between atoms: _327  and  _328
REMARK  124  A    between atoms: _333  and  _334
REMARK  125  A    between atoms: _336  and  _338
REMARK  126  A    between atoms: _338  and  _339
REMARK  127  A    between atoms: _338  and  _341
REMARK  128  A    between atoms: _341  and  _342
REMARK  129  A    between atoms: _345  and  _347
REMARK  130  A    between atoms: _347  and  _348
REMARK  131  A    between atoms: _351  and  _353
REMARK  132  A    between atoms: _353  and  _354
REMARK  133  A    between atoms: _353  and  _356
REMARK  134  A    between atoms: _356  and  _357
REMARK  135  A    between atoms: _359  and  _361
REMARK  136  A    between atoms: _361  and  _362
REMARK  137  A    between atoms: _361  and  _364
REMARK  138  A    between atoms: _364  and  _365
REMARK  139  A    between atoms: _368  and  _370
REMARK  140  A    between atoms: _370  and  _371
REMARK  141  A    between atoms: _374  and  _376
REMARK  142  A    between atoms: _376  and  _377
REMARK  143  A    between atoms: _376  and  _379
REMARK  144  A    between atoms: _379  and  _380
REMARK  145  A    between atoms: _382  and  _384
REMARK  146  A    between atoms: _384  and  _385
REMARK  147  A    between atoms: _384  and  _387
REMARK  148  A    between atoms: _387  and  _388
REMARK  149  A    between atoms: _393  and  _395
REMARK  150  A    between atoms: _395  and  _396
REMARK  151  A    between atoms: _398  and  _400
REMARK  152  A    between atoms: _400  and  _401
REMARK  153  A    between atoms: _400  and  _403
REMARK  154  A    between atoms: _403  and  _404
REMARK  155  A    between atoms: _407  and  _409
REMARK  156  A    between atoms: _409  and  _410
REMARK  157  A    between atoms: _413  and  _415
REMARK  158  A    between atoms: _415  and  _416
REMARK  159  A    between atoms: _415  and  _418
REMARK  160  A    between atoms: _421  and  _423
REMARK  161  A    between atoms: _423  and  _424
REMARK  162  A    between atoms: _423  and  _426
REMARK  163  A    between atoms: _426  and  _427
REMARK  164  A    between atoms: _430  and  _432
REMARK  165  A    between atoms: _432  and  _433
REMARK  166  A    between atoms: _436  and  _438
REMARK  167  A    between atoms: _438  and  _439
REMARK  168  A    between atoms: _438  and  _441
REMARK  169  A    between atoms: _441  and  _442
REMARK  170  A    between atoms: _444  and  _446
REMARK  171  A    between atoms: _446  and  _447
REMARK  172  A    between atoms: _446  and  _449
REMARK  173  A    between atoms: _449  and  _450
REMARK  174  A    between atoms: _453  and  _455
REMARK  175  A    between atoms: _455  and  _456
REMARK  176  A    between atoms: _455  and  _458
REMARK  177  A    between atoms: _458  and  _459
REMARK  178  A    between atoms: _462  and  _464
REMARK  179  A    between atoms: _464  and  _465
REMARK  180  A    between atoms: _464  and  _467
REMARK  181  A    between atoms: _467  and  _468
REMARK  182  A    between atoms: _472  and  _473
REMARK  183  A    between atoms: _479  and  _480
REMARK  184  A    between atoms: _485  and  _487
REMARK  185  A    between atoms: _487  and  _488
REMARK  186  A    between atoms: _487  and  _490
REMARK  187  A    between atoms: _492  and  _494
REMARK  188  A    between atoms: _494  and  _495
REMARK  189  A    between atoms: _494  and  _497
REMARK  190  A    between atoms: _497  and  _498
REMARK  191  A    between atoms: _503  and  _505
REMARK  192  A    between atoms: _505  and  _506
REMARK  193  A    between atoms: _505  and  _508
REMARK  194  A    between atoms: _508  and  _509
REMARK  195  A    between atoms: _512  and  _514
REMARK  196  A    between atoms: _514  and  _515
REMARK  197  A    between atoms: _514  and  _517
REMARK  198  A    between atoms: _520  and  _522
REMARK  199  A    between atoms: _522  and  _523
REMARK  200  A    between atoms: _522  and  _525
REMARK  201  A    between atoms: _525  and  _526
REMARK  202  A    between atoms: _529  and  _531
REMARK  203  A    between atoms: _531  and  _532
REMARK  204  A    between atoms: _531  and  _534
REMARK  205  A    between atoms: _534  and  _535
REMARK  206  A    between atoms: _545  and  _547
REMARK  207  A    between atoms: _547  and  _548
REMARK  208  A    between atoms: _547  and  _550
REMARK  209  A    between atoms: _550  and  _551
REMARK  210  A    between atoms: _551  and  _552
REMARK  211  A    between atoms: _554  and  _556
REMARK  212  A    between atoms: _556  and  _557
REMARK  213  A    between atoms: _556  and  _559
REMARK  214  A    between atoms: _559  and  _560
REMARK  215  A    between atoms: _565  and  _567
REMARK  216  A    between atoms: _567  and  _568
REMARK  217  A    between atoms: _567  and  _570
REMARK  218  A    between atoms: _570  and  _571
REMARK  219  A    between atoms: _571  and  _572
REMARK  220  A    between atoms: _572  and  _573
REMARK                            x       y       z     vdW  Elec       q    Type
REMARK                         _______ _______ _______ _____ _____    ______ ____
ROOT
ATOM      1  C   LYS A   1      17.226  15.294  17.707  0.00  0.00    +0.202 C 
ATOM      2  O   LYS A   1      16.148  15.300  18.329  0.00  0.00    -0.277 OA
ATOM      3  N   TRP A   2      17.585  14.302  16.894  0.00  0.00    -0.301 N 
ATOM      4  H   TRP A   2      18.565  14.249  16.551  0.00  0.00    +0.150 HD
ENDROOT
BRANCH   1   5
ATOM      5  CA  LYS A   1      18.239  16.435  17.883  0.00  0.00    +0.013 C 
BRANCH   5   6
ATOM      6  N   LYS A   1      19.373  16.018  18.760  0.00  0.00    +0.387 N 
ATOM      7  H1  LYS A   1      19.006  15.751  19.696  0.00  0.00    -0.089 HD
ATOM      8  H2  LYS A   1      20.041  16.809  18.861  0.00  0.00    -0.089 HD
ATOM      9  H3  LYS A   1      19.859  15.204  18.332  0.00  0.00    -0.089 HD
ENDBRANCH   5   6
BRANCH   5  10
ATOM     10  CB  LYS A   1      18.726  16.954  16.513  0.00  0.00    -0.013 C 
BRANCH  10  11
ATOM     11  CG  LYS A   1      20.199  16.693  16.212  0.00  0.00    -0.004 C 
BRANCH  11  12
ATOM     12  CD  LYS A   1      21.152  17.733  16.819  0.00  0.00    -0.024 C 
BRANCH  12  13
ATOM     13  CE  LYS A   1      22.593  17.499  16.359  0.00  0.00    -0.086 C 
BRANCH  13  14
ATOM     14  NZ  LYS A   1      22.922  16.045  16.192  0.00  0.00    +0.380 N 
ATOM     15  HZ1 LYS A   1      22.795  15.555  17.101  0.00  0.00    -0.089 HD
ATOM     16  HZ2 LYS A   1      23.909  15.948  15.880  0.00  0.00    -0.089 HD
ATOM     17  HZ3 LYS A   1      22.289  15.627  15.480  0.00  0.00    -0.089 HD
ENDBRANCH  13  14
ENDBRANCH  12  13
ENDBRANCH  11  12
ENDBRANCH  10  11
ENDBRANCH   5  10
ENDBRANCH   1   5
BRANCH   3  18
ATOM     18  CA  TRP A   2      16.615  13.283  16.476  0.00  0.00    +0.141 C 
BRANCH  18  19
ATOM     19  C   TRP A   2      16.554  12.138  17.465  0.00  0.00    +0.227 C 
ATOM     20  O   TRP A   2      17.549  11.901  18.240  0.00  0.00    -0.286 OA
ENDBRANCH  18  19
BRANCH  18  21
ATOM     21  CB  TRP A   2      17.069  12.843  15.100  0.00  0.00    +0.056 C 
BRANCH  21  22
ATOM     22  CG  TRP A   2      18.383  12.100  15.034  0.00  0.00    -0.002 A 
ATOM     23  CD2 TRP A   2      18.582  10.666  15.165  0.00  0.00    +0.013 A 
ATOM     24  CE3 TRP A   2      17.763   9.617  15.422  0.00  0.00    +0.001 A 
ATOM     25  CZ3 TRP A   2      18.294   8.314  15.485  0.00  0.00    +0.000 A 
ATOM     26  CH2 TRP A   2      19.666   8.106  15.309  0.00  0.00    +0.001 A 
ATOM     27  CZ2 TRP A   2      20.550   9.127  15.048  0.00  0.00    +0.017 A 
ATOM     28  CE2 TRP A   2      20.018  10.426  15.017  0.00  0.00    +0.056 A 
ATOM     29  NE1 TRP A   2      20.579  11.585  14.727  0.00  0.00    -0.352 N 
ATOM     30  HE1 TRP A   2      21.584  11.717  14.494  0.00  0.00    +0.166 HD
ATOM     31  CD1 TRP A   2      19.649  12.590  14.777  0.00  0.00    +0.068 A 
ENDBRANCH  21  22
ENDBRANCH  18  21
ENDBRANCH   3  18
TORSDOF 11
REMARK  Name = ../refined-set-2016/4qj0/4qj0_pocket.pdb
REMARK  220 active torsions:
REMARK  status: ('A' for Active; 'I' for Inactive)
REMARK    1  A    between atoms: _1  and  _5
REMARK    2  A    between atoms: _5  and  _6
REMARK    3  A    between atoms: _5  and  _8
REMARK    4  A    between atoms: _8  and  _9
REMARK    5  A    between atoms: _9  and  _10
REMARK    6  A    between atoms: _10  and  _11
REMARK    7  A    between atoms: _11  and  _12
REMARK    8  A    between atoms: _16  and  _18
REMARK    9  A    between atoms: _18  and  _19
REMARK   10  A    between atoms: _18  and  _21
REMARK   11  A    between atoms: _21  and  _22
REMARK   12  A    between atoms: _32  and  _34
REMARK   13  A    between atoms: _34  and  _35
REMARK   14  A    between atoms: _34  and  _37
REMARK   15  A    between atoms: _37  and  _38
REMARK   16  A    between atoms: _43  and  _44
REMARK   17  A    between atoms: _46  and  _48
REMARK   18  A    between atoms: _48  and  _49
REMARK   19  A    between atoms: _48  and  _51
REMARK   20  A    between atoms: _51  and  _52
REMARK   21  A    between atoms: _57  and  _58
REMARK   22  A    between atoms: _60  and  _62
REMARK   23  A    between atoms: _62  and  _63
REMARK   24  A    between atoms: _62  and  _65
REMARK   25  A    between atoms: _65  and  _66
REMARK   26  A    between atoms: _69  and  _70
REMARK   27  A    between atoms: _75  and  _77
REMARK   28  A    between atoms: _77  and  _78
REMARK   29  A    between atoms: _77  and  _80
REMARK   30  A    between atoms: _80  and  _81
REMARK   31  A    between atoms: _84  and  _86
REMARK   32  A    between atoms: _86  and  _87
REMARK   33  A    between atoms: _86  and  _89
REMARK   34  A    between atoms: _89  and  _90
REMARK   35  A    between atoms: _95  and  _97
REMARK   36  A    between atoms: _97  and  _98
REMARK   37  A    between atoms: _100  and  _102
REMARK   38  A    between atoms: _102  and  _103
REMARK   39  A    between atoms: _102  and  _105
REMARK   40  A    between atoms: _105  and  _106
REMARK   41  A    between atoms: _111  and  _113
REMARK   42  A    between atoms: _113  and  _114
REMARK   43  A    between atoms: _113  and  _116
REMARK   44  A    between atoms: _116  and  _117
REMARK   45  A    between atoms: _119  and  _121
REMARK   46  A    between atoms: _121  and  _122
REMARK   47  A    between atoms: _121  and  _124
REMARK   48  A    between atoms: _127  and  _129
REMARK   49  A    between atoms: _129  and  _130
REMARK   50  A    between atoms: _129  and  _132
REMARK   51  A    between atoms: _132  and  _133
REMARK   52  A    between atoms: _133  and  _134
REMARK   53  A    between atoms: _134  and  _135
REMARK   54  A    between atoms: _135  and  _136
REMARK   55  A    between atoms: _140  and  _142
REMARK   56  A    between atoms: _142  and  _143
REMARK   57  A    between atoms: _142  and  _145
REMARK   58  A    between atoms: _145  and  _146
REMARK   59  A    between atoms: _149  and  _151
REMARK   60  A    between atoms: _151  and  _152
REMARK   61  A    between atoms: _151  and  _154
REMARK   62  A    between atoms: _154  and  _155
REMARK   63  A    between atoms: _160  and  _162
REMARK   64  A    between atoms: _162  and  _163
REMARK   65  A    between atoms: _166  and  _168
REMARK   66  A    between atoms: _168  and  _169
REMARK   67  A    between atoms: _168  and  _171
REMARK   68  A    between atoms: _171  and  _172
REMARK   69  A    between atoms: _175  and  _177
REMARK   70  A    between atoms: _177  and  _178
REMARK   71  A    between atoms: _177  and  _180
REMARK   72  A    between atoms: _180  and  _181
REMARK   73  A    between atoms: _181  and  _182
REMARK   74  A    between atoms: _187  and  _189
REMARK   75  A    between atoms: _189  and  _190
REMARK   76  A    between atoms: _189  and  _192
REMARK   77  A    between atoms: _192  and  _193
REMARK   78  A    between atoms: _196  and  _198
REMARK   79  A    between atoms: _209  and  _212
REMARK   80  A    between atoms: _212  and  _213
REMARK   81  A    between atoms: _218  and  _219
REMARK   82  A    between atoms: _227  and  _229
REMARK   83  A    between atoms: _229  and  _230
REMARK   84  A    between atoms: _229  and  _232
REMARK   85  A    between atoms: _232  and  _233
REMARK   86  A    between atoms: _243  and  _245
REMARK   87  A    between atoms: _245  and  _246
REMARK   88  A    between atoms: _245  and  _248
REMARK   89  A    between atoms: _248  and  _249
REMARK   90  A    between atoms: _249  and  _250
REMARK   91  A    between atoms: _253  and  _255
REMARK   92  A    between atoms: _255  and  _256
REMARK   93  A    between atoms: _255  and  _258
REMARK   94  A    between atoms: _258  and  _259
REMARK   95  A    between atoms: _264  and  _266
REMARK   96  A    between atoms: _266  and  _267
REMARK   97  A    between atoms: _266  and  _269
REMARK   98  A    between atoms: _269  and  _270
REMARK   99  A    between atoms: _270  and  _271
REMARK  100  A    between atoms: _274  and  _276
REMARK  101  A    between atoms: _276  and  _277
REMARK  102  A    between atoms: _276  and  _279
REMARK  103  A    between atoms: _279  and  _280
REMARK  104  A    between atoms: _283  and  _285
REMARK  105  A    between atoms: _285  and  _286
REMARK  106  A    between atoms: _285  and  _288
REMARK  107  A    between atoms: _288  and  _289
REMARK  108  A    between atoms: _290  and  ZN_582
REMARK  109  A    between atoms: _294  and  _296
REMARK  110  A    between atoms: _296  and  _297
REMARK  111  A    between atoms: _296  and  _299
REMARK  112  A    between atoms: _299  and  _300
REMARK  113  A    between atoms: _303  and  _305
REMARK  114  A    between atoms: _305  and  _306
REMARK  115  A    between atoms: _305  and  _308
REMARK  116  A    between atoms: _311  and  _313
REMARK  117  A    between atoms: _313  and  _314
REMARK  118  A    between atoms: _313  and  _316
REMARK  119  A    between atoms: _316  and  _317
REMARK  120  A    between atoms: _322  and  _324
REMARK  121  A    between atoms: _324  and  _325
REMARK  122  A    between atoms: _324  and  _327
REMARK  123  A    between atoms: _327  and  _328
REMARK  124  A    between atoms: _333  and  _334
REMARK  125  A    between atoms: _336  and  _338
REMARK  126  A    between atoms: _338  and  _339
REMARK  127  A    between atoms: _338  and  _341
REMARK  128  A    between atoms: _341  and  _342
REMARK  129  A    between atoms: _345  and  _347
REMARK  130  A    between atoms: _347  and  _348
REMARK  131  A    between atoms: _351  and  _353
REMARK  132  A    between atoms: _353  and  _354
REMARK  133  A    between atoms: _353  and  _356
REMARK  134  A    between atoms: _356  and  _357
REMARK  135  A    between atoms: _359  and  _361
REMARK  136  A    between atoms: _361  and  _362
REMARK  137  A    between atoms: _361  and  _364
REMARK  138  A    between atoms: _364  and  _365
REMARK  139  A    between atoms: _368  and  _370
REMARK  140  A    between atoms: _370  and  _371
REMARK  141  A    between atoms: _374  and  _376
REMARK  142  A    between atoms: _376  and  _377
REMARK  143  A    between atoms: _376  and  _379
REMARK  144  A    between atoms: _379  and  _380
REMARK  145  A    between atoms: _382  and  _384
REMARK  146  A    between atoms: _384  and  _385
REMARK  147  A    between atoms: _384  and  _387
REMARK  148  A    between atoms: _387  and  _388
REMARK  149  A    between atoms: _393  and  _395
REMARK  150  A    between atoms: _395  and  _396
REMARK  151  A    between atoms: _398  and  _400
REMARK  152  A    between atoms: _400  and  _401
REMARK  153  A    between atoms: _400  and  _403
REMARK  154  A    between atoms: _403  and  _404
REMARK  155  A    between atoms: _407  and  _409
REMARK  156  A    between atoms: _409  and  _410
REMARK  157  A    between atoms: _413  and  _415
REMARK  158  A    between atoms: _415  and  _416
REMARK  159  A    between atoms: _415  and  _418
REMARK  160  A    between atoms: _421  and  _423
REMARK  161  A    between atoms: _423  and  _424
REMARK  162  A    between atoms: _423  and  _426
REMARK  163  A    between atoms: _426  and  _427
REMARK  164  A    between atoms: _430  and  _432
REMARK  165  A    between atoms: _432  and  _433
REMARK  166  A    between atoms: _436  and  _438
REMARK  167  A    between atoms: _438  and  _439
REMARK  168  A    between atoms: _438  and  _441
REMARK  169  A    between atoms: _441  and  _442
REMARK  170  A    between atoms: _444  and  _446
REMARK  171  A    between atoms: _446  and  _447
REMARK  172  A    between atoms: _446  and  _449
REMARK  173  A    between atoms: _449  and  _450
REMARK  174  A    between atoms: _453  and  _455
REMARK  175  A    between atoms: _455  and  _456
REMARK  176  A    between atoms: _455  and  _458
REMARK  177  A    between atoms: _458  and  _459
REMARK  178  A    between atoms: _462  and  _464
REMARK  179  A    between atoms: _464  and  _465
REMARK  180  A    between atoms: _464  and  _467
REMARK  181  A    between atoms: _467  and  _468
REMARK  182  A    between atoms: _472  and  _473
REMARK  183  A    between atoms: _479  and  _480
REMARK  184  A    between atoms: _485  and  _487
REMARK  185  A    between atoms: _487  and  _488
REMARK  186  A    between atoms: _487  and  _490
REMARK  187  A    between atoms: _492  and  _494
REMARK  188  A    between atoms: _494  and  _495
REMARK  189  A    between atoms: _494  and  _497
REMARK  190  A    between atoms: _497  and  _498
REMARK  191  A    between atoms: _503  and  _505
REMARK  192  A    between atoms: _505  and  _506
REMARK  193  A    between atoms: _505  and  _508
REMARK  194  A    between atoms: _508  and  _509
REMARK  195  A    between atoms: _512  and  _514
REMARK  196  A    between atoms: _514  and  _515
REMARK  197  A    between atoms: _514  and  _517
REMARK  198  A    between atoms: _520  and  _522
REMARK  199  A    between atoms: _522  and  _523
REMARK  200  A    between atoms: _522  and  _525
REMARK  201  A    between atoms: _525  and  _526
REMARK  202  A    between atoms: _529  and  _531
REMARK  203  A    between atoms: _531  and  _532
REMARK  204  A    between atoms: _531  and  _534
REMARK  205  A    between atoms: _534  and  _535
REMARK  206  A    between atoms: _545  and  _547
REMARK  207  A    between atoms: _547  and  _548
REMARK  208  A    between atoms: _547  and  _550
REMARK  209  A    between atoms: _550  and  _551
REMARK  210  A    between atoms: _551  and  _552
REMARK  211  A    between atoms: _554  and  _556
REMARK  212  A    between atoms: _556  and  _557
REMARK  213  A    between atoms: _556  and  _559
REMARK  214  A    between atoms: _559  and  _560
REMARK  215  A    between atoms: _565  and  _567
REMARK  216  A    between atoms: _567  and  _568
REMARK  217  A    between atoms: _567  and  _570
REMARK  218  A    between atoms: _570  and  _571
REMARK  219  A    between atoms: _571  and  _572
REMARK  220  A    between atoms: _572  and  _573
REMARK                            x       y       z     vdW  Elec       q    Type
REMARK                         _______ _______ _______ _____ _____    ______ ____
ROOT
ATOM      1  CG  TYR A   1      15.559   5.295  17.294  0.00  0.00    -0.020 A 
ATOM      2  CD2 TYR A   1      16.857   5.403  17.727  0.00  0.00    -0.001 A 
ATOM      3  CE2 TYR A   1      17.925   5.017  17.002  0.00  0.00    +0.036 A 
ATOM      4  CZ  TYR A   1      17.663   4.460  15.705  0.00  0.00    +0.134 A 
ATOM      5  CE1 TYR A   1      16.357   4.317  15.204  0.00  0.00    +0.036 A 
ATOM      6  CD1 TYR A   1      15.309   4.723  15.996  0.00  0.00    -0.001 A 
ENDROOT
BRANCH   4   7
ATOM      7  OH  TYR A   1      18.756   4.129  15.034  0.00  0.00    -0.506 OA
ATOM      8  HH  TYR A   1      18.801   4.657  14.198  0.00  0.00    +0.292 HD
ENDBRANCH   4   7
BRANCH   1   9
ATOM      9  CB  TYR A   1      14.415   5.645  18.185  0.00  0.00    +0.051 C 
BRANCH   9  10
ATOM     10  CA  TYR A   1      13.653   6.912  17.773  0.00  0.00    +0.137 C 
BRANCH  10  11
ATOM     11  N   TYR A   1      14.405   8.024  18.284  0.00  0.00    -0.239 NA
ATOM     12  H   TYR A   1      14.886   7.917  19.200  0.00  0.00    +0.142 HD
ENDBRANCH  10  11
BRANCH  10  13
ATOM     13  C   TYR A   1      12.254   6.881  18.351  0.00  0.00    +0.224 C 
ATOM     14  O   TYR A   1      11.438   6.076  18.037  0.00  0.00    -0.287 OA
ENDBRANCH  10  13
ENDBRANCH   9  10
ENDBRANCH   1   9
TORSDOF 5
REMARK  Name = ../refined-set-2016/4qj0/4qj0_pocket.pdb
REMARK  220 active torsions:
REMARK  status: ('A' for Active; 'I' for Inactive)
REMARK    1  A    between atoms: _1  and  _5
REMARK    2  A    between atoms: _5  and  _6
REMARK    3  A    between atoms: _5  and  _8
REMARK    4  A    between atoms: _8  and  _9
REMARK    5  A    between atoms: _9  and  _10
REMARK    6  A    between atoms: _10  and  _11
REMARK    7  A    between atoms: _11  and  _12
REMARK    8  A    between atoms: _16  and  _18
REMARK    9  A    between atoms: _18  and  _19
REMARK   10  A    between atoms: _18  and  _21
REMARK   11  A    between atoms: _21  and  _22
REMARK   12  A    between atoms: _32  and  _34
REMARK   13  A    between atoms: _34  and  _35
REMARK   14  A    between atoms: _34  and  _37
REMARK   15  A    between atoms: _37  and  _38
REMARK   16  A    between atoms: _43  and  _44
REMARK   17  A    between atoms: _46  and  _48
REMARK   18  A    between atoms: _48  and  _49
REMARK   19  A    between atoms: _48  and  _51
REMARK   20  A    between atoms: _51  and  _52
REMARK   21  A    between atoms: _57  and  _58
REMARK   22  A    between atoms: _60  and  _62
REMARK   23  A    between atoms: _62  and  _63
REMARK   24  A    between atoms: _62  and  _65
REMARK   25  A    between atoms: _65  and  _66
REMARK   26  A    between atoms: _69  and  _70
REMARK   27  A    between atoms: _75  and  _77
REMARK   28  A    between atoms: _77  and  _78
REMARK   29  A    between atoms: _77  and  _80
REMARK   30  A    between atoms: _80  and  _81
REMARK   31  A    between atoms: _84  and  _86
REMARK   32  A    between atoms: _86  and  _87
REMARK   33  A    between atoms: _86  and  _89
REMARK   34  A    between atoms: _89  and  _90
REMARK   35  A    between atoms: _95  and  _97
REMARK   36  A    between atoms: _97  and  _98
REMARK   37  A    between atoms: _100  and  _102
REMARK   38  A    between atoms: _102  and  _103
REMARK   39  A    between atoms: _102  and  _105
REMARK   40  A    between atoms: _105  and  _106
REMARK   41  A    between atoms: _111  and  _113
REMARK   42  A    between atoms: _113  and  _114
REMARK   43  A    between atoms: _113  and  _116
REMARK   44  A    between atoms: _116  and  _117
REMARK   45  A    between atoms: _119  and  _121
REMARK   46  A    between atoms: _121  and  _122
REMARK   47  A    between atoms: _121  and  _124
REMARK   48  A    between atoms: _127  and  _129
REMARK   49  A    between atoms: _129  and  _130
REMARK   50  A    between atoms: _129  and  _132
REMARK   51  A    between atoms: _132  and  _133
REMARK   52  A    between atoms: _133  and  _134
REMARK   53  A    between atoms: _134  and  _135
REMARK   54  A    between atoms: _135  and  _136
REMARK   55  A    between atoms: _140  and  _142
REMARK   56  A    between atoms: _142  and  _143
REMARK   57  A    between atoms: _142  and  _145
REMARK   58  A    between atoms: _145  and  _146
REMARK   59  A    between atoms: _149  and  _151
REMARK   60  A    between atoms: _151  and  _152
REMARK   61  A    between atoms: _151  and  _154
REMARK   62  A    between atoms: _154  and  _155
REMARK   63  A    between atoms: _160  and  _162
REMARK   64  A    between atoms: _162  and  _163
REMARK   65  A    between atoms: _166  and  _168
REMARK   66  A    between atoms: _168  and  _169
REMARK   67  A    between atoms: _168  and  _171
REMARK   68  A    between atoms: _171  and  _172
REMARK   69  A    between atoms: _175  and  _177
REMARK   70  A    between atoms: _177  and  _178
REMARK   71  A    between atoms: _177  and  _180
REMARK   72  A    between atoms: _180  and  _181
REMARK   73  A    between atoms: _181  and  _182
REMARK   74  A    between atoms: _187  and  _189
REMARK   75  A    between atoms: _189  and  _190
REMARK   76  A    between atoms: _189  and  _192
REMARK   77  A    between atoms: _192  and  _193
REMARK   78  A    between atoms: _196  and  _198
REMARK   79  A    between atoms: _209  and  _212
REMARK   80  A    between atoms: _212  and  _213
REMARK   81  A    between atoms: _218  and  _219
REMARK   82  A    between atoms: _227  and  _229
REMARK   83  A    between atoms: _229  and  _230
REMARK   84  A    between atoms: _229  and  _232
REMARK   85  A    between atoms: _232  and  _233
REMARK   86  A    between atoms: _243  and  _245
REMARK   87  A    between atoms: _245  and  _246
REMARK   88  A    between atoms: _245  and  _248
REMARK   89  A    between atoms: _248  and  _249
REMARK   90  A    between atoms: _249  and  _250
REMARK   91  A    between atoms: _253  and  _255
REMARK   92  A    between atoms: _255  and  _256
REMARK   93  A    between atoms: _255  and  _258
REMARK   94  A    between atoms: _258  and  _259
REMARK   95  A    between atoms: _264  and  _266
REMARK   96  A    between atoms: _266  and  _267
REMARK   97  A    between atoms: _266  and  _269
REMARK   98  A    between atoms: _269  and  _270
REMARK   99  A    between atoms: _270  and  _271
REMARK  100  A    between atoms: _274  and  _276
REMARK  101  A    between atoms: _276  and  _277
REMARK  102  A    between atoms: _276  and  _279
REMARK  103  A    between atoms: _279  and  _280
REMARK  104  A    between atoms: _283  and  _285
REMARK  105  A    between atoms: _285  and  _286
REMARK  106  A    between atoms: _285  and  _288
REMARK  107  A    between atoms: _288  and  _289
REMARK  108  A    between atoms: _290  and  ZN_582
REMARK  109  A    between atoms: _294  and  _296
REMARK  110  A    between atoms: _296  and  _297
REMARK  111  A    between atoms: _296  and  _299
REMARK  112  A    between atoms: _299  and  _300
REMARK  113  A    between atoms: _303  and  _305
REMARK  114  A    between atoms: _305  and  _306
REMARK  115  A    between atoms: _305  and  _308
REMARK  116  A    between atoms: _311  and  _313
REMARK  117  A    between atoms: _313  and  _314
REMARK  118  A    between atoms: _313  and  _316
REMARK  119  A    between atoms: _316  and  _317
REMARK  120  A    between atoms: _322  and  _324
REMARK  121  A    between atoms: _324  and  _325
REMARK  122  A    between atoms: _324  and  _327
REMARK  123  A    between atoms: _327  and  _328
REMARK  124  A    between atoms: _333  and  _334
REMARK  125  A    between atoms: _336  and  _338
REMARK  126  A    between atoms: _338  and  _339
REMARK  127  A    between atoms: _338  and  _341
REMARK  128  A    between atoms: _341  and  _342
REMARK  129  A    between atoms: _345  and  _347
REMARK  130  A    between atoms: _347  and  _348
REMARK  131  A    between atoms: _351  and  _353
REMARK  132  A    between atoms: _353  and  _354
REMARK  133  A    between atoms: _353  and  _356
REMARK  134  A    between atoms: _356  and  _357
REMARK  135  A    between atoms: _359  and  _361
REMARK  136  A    between atoms: _361  and  _362
REMARK  137  A    between atoms: _361  and  _364
REMARK  138  A    between atoms: _364  and  _365
REMARK  139  A    between atoms: _368  and  _370
REMARK  140  A    between atoms: _370  and  _371
REMARK  141  A    between atoms: _374  and  _376
REMARK  142  A    between atoms: _376  and  _377
REMARK  143  A    between atoms: _376  and  _379
REMARK  144  A    between atoms: _379  and  _380
REMARK  145  A    between atoms: _382  and  _384
REMARK  146  A    between atoms: _384  and  _385
REMARK  147  A    between atoms: _384  and  _387
REMARK  148  A    between atoms: _387  and  _388
REMARK  149  A    between atoms: _393  and  _395
REMARK  150  A    between atoms: _395  and  _396
REMARK  151  A    between atoms: _398  and  _400
REMARK  152  A    between atoms: _400  and  _401
REMARK  153  A    between atoms: _400  and  _403
REMARK  154  A    between atoms: _403  and  _404
REMARK  155  A    between atoms: _407  and  _409
REMARK  156  A    between atoms: _409  and  _410
REMARK  157  A    between atoms: _413  and  _415
REMARK  158  A    between atoms: _415  and  _416
REMARK  159  A    between atoms: _415  and  _418
REMARK  160  A    between atoms: _421  and  _423
REMARK  161  A    between atoms: _423  and  _424
REMARK  162  A    between atoms: _423  and  _426
REMARK  163  A    between atoms: _426  and  _427
REMARK  164  A    between atoms: _430  and  _432
REMARK  165  A    between atoms: _432  and  _433
REMARK  166  A    between atoms: _436  and  _438
REMARK  167  A    between atoms: _438  and  _439
REMARK  168  A    between atoms: _438  and  _441
REMARK  169  A    between atoms: _441  and  _442
REMARK  170  A    between atoms: _444  and  _446
REMARK  171  A    between atoms: _446  and  _447
REMARK  172  A    between atoms: _446  and  _449
REMARK  173  A    between atoms: _449  and  _450
REMARK  174  A    between atoms: _453  and  _455
REMARK  175  A    between atoms: _455  and  _456
REMARK  176  A    between atoms: _455  and  _458
REMARK  177  A    between atoms: _458  and  _459
REMARK  178  A    between atoms: _462  and  _464
REMARK  179  A    between atoms: _464  and  _465
REMARK  180  A    between atoms: _464  and  _467
REMARK  181  A    between atoms: _467  and  _468
REMARK  182  A    between atoms: _472  and  _473
REMARK  183  A    between atoms: _479  and  _480
REMARK  184  A    between atoms: _485  and  _487
REMARK  185  A    between atoms: _487  and  _488
REMARK  186  A    between atoms: _487  and  _490
REMARK  187  A    between atoms: _492  and  _494
REMARK  188  A    between atoms: _494  and  _495
REMARK  189  A    between atoms: _494  and  _497
REMARK  190  A    between atoms: _497  and  _498
REMARK  191  A    between atoms: _503  and  _505
REMARK  192  A    between atoms: _505  and  _506
REMARK  193  A    between atoms: _505  and  _508
REMARK  194  A    between atoms: _508  and  _509
REMARK  195  A    between atoms: _512  and  _514
REMARK  196  A    between atoms: _514  and  _515
REMARK  197  A    between atoms: _514  and  _517
REMARK  198  A    between atoms: _520  and  _522
REMARK  199  A    between atoms: _522  and  _523
REMARK  200  A    between atoms: _522  and  _525
REMARK  201  A    between atoms: _525  and  _526
REMARK  202  A    between atoms: _529  and  _531
REMARK  203  A    between atoms: _531  and  _532
REMARK  204  A    between atoms: _531  and  _534
REMARK  205  A    between atoms: _534  and  _535
REMARK  206  A    between atoms: _545  and  _547
REMARK  207  A    between atoms: _547  and  _548
REMARK  208  A    between atoms: _547  and  _550
REMARK  209  A    between atoms: _550  and  _551
REMARK  210  A    between atoms: _551  and  _552
REMARK  211  A    between atoms: _554  and  _556
REMARK  212  A    between atoms: _556  and  _557
REMARK  213  A    between atoms: _556  and  _559
REMARK  214  A    between atoms: _559  and  _560
REMARK  215  A    between atoms: _565  and  _567
REMARK  216  A    between atoms: _567  and  _568
REMARK  217  A    between atoms: _567  and  _570
REMARK  218  A    between atoms: _570  and  _571
REMARK  219  A    between atoms: _571  and  _572
REMARK  220  A    between atoms: _572  and  _573
REMARK                            x       y       z     vdW  Elec       q    Type
REMARK                         _______ _______ _______ _____ _____    ______ ____
ROOT
ATOM      1  CG  TYR A   1      18.446  14.755   9.345  0.00  0.00    -0.020 A 
ATOM      2  CD2 TYR A   1      17.733  14.734  10.548  0.00  0.00    -0.001 A 
ATOM      3  CE2 TYR A   1      18.362  15.089  11.748  0.00  0.00    +0.036 A 
ATOM      4  CZ  TYR A   1      19.703  15.442  11.701  0.00  0.00    +0.134 A 
ATOM      5  CE1 TYR A   1      20.452  15.422  10.524  0.00  0.00    +0.036 A 
ATOM      6  CD1 TYR A   1      19.828  15.068   9.345  0.00  0.00    -0.001 A 
ENDROOT
BRANCH   4   7
ATOM      7  OH  TYR A   1      20.350  15.727  12.927  0.00  0.00    -0.506 OA
ATOM      8  HH  TYR A   1      21.296  15.963  12.753  0.00  0.00    +0.292 HD
ENDBRANCH   4   7
BRANCH   1   9
ATOM      9  CB  TYR A   1      17.801  14.386   8.069  0.00  0.00    +0.051 C 
BRANCH   9  10
ATOM     10  CA  TYR A   1      17.382  15.554   7.177  0.00  0.00    +0.137 C 
BRANCH  10  11
ATOM     11  N   TYR A   1      16.480  16.469   7.951  0.00  0.00    -0.239 NA
ATOM     12  H   TYR A   1      15.499  16.182   8.144  0.00  0.00    +0.142 HD
ENDBRANCH  10  11
BRANCH  10  13
ATOM     13  C   TYR A   1      16.684  15.096   5.930  0.00  0.00    +0.224 C 
ATOM     14  O   TYR A   1      15.976  14.076   5.931  0.00  0.00    -0.287 OA
ENDBRANCH  10  13
ENDBRANCH   9  10
ENDBRANCH   1   9
TORSDOF 5
REMARK  Name = ../refined-set-2016/4qj0/4qj0_pocket.pdb
REMARK  220 active torsions:
REMARK  status: ('A' for Active; 'I' for Inactive)
REMARK    1  A    between atoms: _1  and  _5
REMARK    2  A    between atoms: _5  and  _6
REMARK    3  A    between atoms: _5  and  _8
REMARK    4  A    between atoms: _8  and  _9
REMARK    5  A    between atoms: _9  and  _10
REMARK    6  A    between atoms: _10  and  _11
REMARK    7  A    between atoms: _11  and  _12
REMARK    8  A    between atoms: _16  and  _18
REMARK    9  A    between atoms: _18  and  _19
REMARK   10  A    between atoms: _18  and  _21
REMARK   11  A    between atoms: _21  and  _22
REMARK   12  A    between atoms: _32  and  _34
REMARK   13  A    between atoms: _34  and  _35
REMARK   14  A    between atoms: _34  and  _37
REMARK   15  A    between atoms: _37  and  _38
REMARK   16  A    between atoms: _43  and  _44
REMARK   17  A    between atoms: _46  and  _48
REMARK   18  A    between atoms: _48  and  _49
REMARK   19  A    between atoms: _48  and  _51
REMARK   20  A    between atoms: _51  and  _52
REMARK   21  A    between atoms: _57  and  _58
REMARK   22  A    between atoms: _60  and  _62
REMARK   23  A    between atoms: _62  and  _63
REMARK   24  A    between atoms: _62  and  _65
REMARK   25  A    between atoms: _65  and  _66
REMARK   26  A    between atoms: _69  and  _70
REMARK   27  A    between atoms: _75  and  _77
REMARK   28  A    between atoms: _77  and  _78
REMARK   29  A    between atoms: _77  and  _80
REMARK   30  A    between atoms: _80  and  _81
REMARK   31  A    between atoms: _84  and  _86
REMARK   32  A    between atoms: _86  and  _87
REMARK   33  A    between atoms: _86  and  _89
REMARK   34  A    between atoms: _89  and  _90
REMARK   35  A    between atoms: _95  and  _97
REMARK   36  A    between atoms: _97  and  _98
REMARK   37  A    between atoms: _100  and  _102
REMARK   38  A    between atoms: _102  and  _103
REMARK   39  A    between atoms: _102  and  _105
REMARK   40  A    between atoms: _105  and  _106
REMARK   41  A    between atoms: _111  and  _113
REMARK   42  A    between atoms: _113  and  _114
REMARK   43  A    between atoms: _113  and  _116
REMARK   44  A    between atoms: _116  and  _117
REMARK   45  A    between atoms: _119  and  _121
REMARK   46  A    between atoms: _121  and  _122
REMARK   47  A    between atoms: _121  and  _124
REMARK   48  A    between atoms: _127  and  _129
REMARK   49  A    between atoms: _129  and  _130
REMARK   50  A    between atoms: _129  and  _132
REMARK   51  A    between atoms: _132  and  _133
REMARK   52  A    between atoms: _133  and  _134
REMARK   53  A    between atoms: _134  and  _135
REMARK   54  A    between atoms: _135  and  _136
REMARK   55  A    between atoms: _140  and  _142
REMARK   56  A    between atoms: _142  and  _143
REMARK   57  A    between atoms: _142  and  _145
REMARK   58  A    between atoms: _145  and  _146
REMARK   59  A    between atoms: _149  and  _151
REMARK   60  A    between atoms: _151  and  _152
REMARK   61  A    between atoms: _151  and  _154
REMARK   62  A    between atoms: _154  and  _155
REMARK   63  A    between atoms: _160  and  _162
REMARK   64  A    between atoms: _162  and  _163
REMARK   65  A    between atoms: _166  and  _168
REMARK   66  A    between atoms: _168  and  _169
REMARK   67  A    between atoms: _168  and  _171
REMARK   68  A    between atoms: _171  and  _172
REMARK   69  A    between atoms: _175  and  _177
REMARK   70  A    between atoms: _177  and  _178
REMARK   71  A    between atoms: _177  and  _180
REMARK   72  A    between atoms: _180  and  _181
REMARK   73  A    between atoms: _181  and  _182
REMARK   74  A    between atoms: _187  and  _189
REMARK   75  A    between atoms: _189  and  _190
REMARK   76  A    between atoms: _189  and  _192
REMARK   77  A    between atoms: _192  and  _193
REMARK   78  A    between atoms: _196  and  _198
REMARK   79  A    between atoms: _209  and  _212
REMARK   80  A    between atoms: _212  and  _213
REMARK   81  A    between atoms: _218  and  _219
REMARK   82  A    between atoms: _227  and  _229
REMARK   83  A    between atoms: _229  and  _230
REMARK   84  A    between atoms: _229  and  _232
REMARK   85  A    between atoms: _232  and  _233
REMARK   86  A    between atoms: _243  and  _245
REMARK   87  A    between atoms: _245  and  _246
REMARK   88  A    between atoms: _245  and  _248
REMARK   89  A    between atoms: _248  and  _249
REMARK   90  A    between atoms: _249  and  _250
REMARK   91  A    between atoms: _253  and  _255
REMARK   92  A    between atoms: _255  and  _256
REMARK   93  A    between atoms: _255  and  _258
REMARK   94  A    between atoms: _258  and  _259
REMARK   95  A    between atoms: _264  and  _266
REMARK   96  A    between atoms: _266  and  _267
REMARK   97  A    between atoms: _266  and  _269
REMARK   98  A    between atoms: _269  and  _270
REMARK   99  A    between atoms: _270  and  _271
REMARK  100  A    between atoms: _274  and  _276
REMARK  101  A    between atoms: _276  and  _277
REMARK  102  A    between atoms: _276  and  _279
REMARK  103  A    between atoms: _279  and  _280
REMARK  104  A    between atoms: _283  and  _285
REMARK  105  A    between atoms: _285  and  _286
REMARK  106  A    between atoms: _285  and  _288
REMARK  107  A    between atoms: _288  and  _289
REMARK  108  A    between atoms: _290  and  ZN_582
REMARK  109  A    between atoms: _294  and  _296
REMARK  110  A    between atoms: _296  and  _297
REMARK  111  A    between atoms: _296  and  _299
REMARK  112  A    between atoms: _299  and  _300
REMARK  113  A    between atoms: _303  and  _305
REMARK  114  A    between atoms: _305  and  _306
REMARK  115  A    between atoms: _305  and  _308
REMARK  116  A    between atoms: _311  and  _313
REMARK  117  A    between atoms: _313  and  _314
REMARK  118  A    between atoms: _313  and  _316
REMARK  119  A    between atoms: _316  and  _317
REMARK  120  A    between atoms: _322  and  _324
REMARK  121  A    between atoms: _324  and  _325
REMARK  122  A    between atoms: _324  and  _327
REMARK  123  A    between atoms: _327  and  _328
REMARK  124  A    between atoms: _333  and  _334
REMARK  125  A    between atoms: _336  and  _338
REMARK  126  A    between atoms: _338  and  _339
REMARK  127  A    between atoms: _338  and  _341
REMARK  128  A    between atoms: _341  and  _342
REMARK  129  A    between atoms: _345  and  _347
REMARK  130  A    between atoms: _347  and  _348
REMARK  131  A    between atoms: _351  and  _353
REMARK  132  A    between atoms: _353  and  _354
REMARK  133  A    between atoms: _353  and  _356
REMARK  134  A    between atoms: _356  and  _357
REMARK  135  A    between atoms: _359  and  _361
REMARK  136  A    between atoms: _361  and  _362
REMARK  137  A    between atoms: _361  and  _364
REMARK  138  A    between atoms: _364  and  _365
REMARK  139  A    between atoms: _368  and  _370
REMARK  140  A    between atoms: _370  and  _371
REMARK  141  A    between atoms: _374  and  _376
REMARK  142  A    between atoms: _376  and  _377
REMARK  143  A    between atoms: _376  and  _379
REMARK  144  A    between atoms: _379  and  _380
REMARK  145  A    between atoms: _382  and  _384
REMARK  146  A    between atoms: _384  and  _385
REMARK  147  A    between atoms: _384  and  _387
REMARK  148  A    between atoms: _387  and  _388
REMARK  149  A    between atoms: _393  and  _395
REMARK  150  A    between atoms: _395  and  _396
REMARK  151  A    between atoms: _398  and  _400
REMARK  152  A    between atoms: _400  and  _401
REMARK  153  A    between atoms: _400  and  _403
REMARK  154  A    between atoms: _403  and  _404
REMARK  155  A    between atoms: _407  and  _409
REMARK  156  A    between atoms: _409  and  _410
REMARK  157  A    between atoms: _413  and  _415
REMARK  158  A    between atoms: _415  and  _416
REMARK  159  A    between atoms: _415  and  _418
REMARK  160  A    between atoms: _421  and  _423
REMARK  161  A    between atoms: _423  and  _424
REMARK  162  A    between atoms: _423  and  _426
REMARK  163  A    between atoms: _426  and  _427
REMARK  164  A    between atoms: _430  and  _432
REMARK  165  A    between atoms: _432  and  _433
REMARK  166  A    between atoms: _436  and  _438
REMARK  167  A    between atoms: _438  and  _439
REMARK  168  A    between atoms: _438  and  _441
REMARK  169  A    between atoms: _441  and  _442
REMARK  170  A    between atoms: _444  and  _446
REMARK  171  A    between atoms: _446  and  _447
REMARK  172  A    between atoms: _446  and  _449
REMARK  173  A    between atoms: _449  and  _450
REMARK  174  A    between atoms: _453  and  _455
REMARK  175  A    between atoms: _455  and  _456
REMARK  176  A    between atoms: _455  and  _458
REMARK  177  A    between atoms: _458  and  _459
REMARK  178  A    between atoms: _462  and  _464
REMARK  179  A    between atoms: _464  and  _465
REMARK  180  A    between atoms: _464  and  _467
REMARK  181  A    between atoms: _467  and  _468
REMARK  182  A    between atoms: _472  and  _473
REMARK  183  A    between atoms: _479  and  _480
REMARK  184  A    between atoms: _485  and  _487
REMARK  185  A    between atoms: _487  and  _488
REMARK  186  A    between atoms: _487  and  _490
REMARK  187  A    between atoms: _492  and  _494
REMARK  188  A    between atoms: _494  and  _495
REMARK  189  A    between atoms: _494  and  _497
REMARK  190  A    between atoms: _497  and  _498
REMARK  191  A    between atoms: _503  and  _505
REMARK  192  A    between atoms: _505  and  _506
REMARK  193  A    between atoms: _505  and  _508
REMARK  194  A    between atoms: _508  and  _509
REMARK  195  A    between atoms: _512  and  _514
REMARK  196  A    between atoms: _514  and  _515
REMARK  197  A    between atoms: _514  and  _517
REMARK  198  A    between atoms: _520  and  _522
REMARK  199  A    between atoms: _522  and  _523
REMARK  200  A    between atoms: _522  and  _525
REMARK  201  A    between atoms: _525  and  _526
REMARK  202  A    between atoms: _529  and  _531
REMARK  203  A    between atoms: _531  and  _532
REMARK  204  A    between atoms: _531  and  _534
REMARK  205  A    between atoms: _534  and  _535
REMARK  206  A    between atoms: _545  and  _547
REMARK  207  A    between atoms: _547  and  _548
REMARK  208  A    between atoms: _547  and  _550
REMARK  209  A    between atoms: _550  and  _551
REMARK  210  A    between atoms: _551  and  _552
REMARK  211  A    between atoms: _554  and  _556
REMARK  212  A    between atoms: _556  and  _557
REMARK  213  A    between atoms: _556  and  _559
REMARK  214  A    between atoms: _559  and  _560
REMARK  215  A    between atoms: _565  and  _567
REMARK  216  A    between atoms: _567  and  _568
REMARK  217  A    between atoms: _567  and  _570
REMARK  218  A    between atoms: _570  and  _571
REMARK  219  A    between atoms: _571  and  _572
REMARK  220  A    between atoms: _572  and  _573
REMARK                            x       y       z     vdW  Elec       q    Type
REMARK                         _______ _______ _______ _____ _____    ______ ____
ROOT
ATOM      1  C   SER A   1      16.393   1.559   5.731  0.00  0.00    +0.244 C 
ATOM      2  N   PRO A   2      16.056   0.525   6.478  0.00  0.00    -0.273 N 
ATOM      3  CD  PRO A   2      15.528   0.669   7.865  0.00  0.00    +0.094 C 
ATOM      4  CG  PRO A   2      15.139  -0.824   8.226  0.00  0.00    +0.024 C 
ATOM      5  CB  PRO A   2      16.192  -1.585   7.403  0.00  0.00    +0.030 C 
ATOM      6  CA  PRO A   2      16.148  -0.865   6.059  0.00  0.00    +0.140 C 
ATOM      7  O   SER A   1      16.317   2.670   6.189  0.00  0.00    -0.273 OA
ENDROOT
BRANCH   6   8
ATOM      8  C   PRO A   2      14.894  -1.332   5.282  0.00  0.00    +0.227 C 
ATOM      9  O   PRO A   2      13.962  -0.568   5.047  0.00  0.00    -0.286 OA
ENDBRANCH   6   8
BRANCH   1  10
ATOM     10  CA  SER A   1      16.970   1.345   4.336  0.00  0.00    +0.175 C 
BRANCH  10  11
ATOM     11  N   SER A   1      16.850   2.611   3.601  0.00  0.00    -0.236 NA
ATOM     12  H   SER A   1      17.386   3.429   3.954  0.00  0.00    +0.142 HD
ENDBRANCH  10  11
BRANCH  10  13
ATOM     13  CB  SER A   1      18.486   1.056   4.442  0.00  0.00    +0.163 C 
BRANCH  13  14
ATOM     14  OG  SER A   1      19.011   0.804   3.150  0.00  0.00    -0.380 OA
ATOM     15  H   SER A   1      18.552   0.020   2.756  0.00  0.00    +0.211 HD
ENDBRANCH  13  14
ENDBRANCH  10  13
ENDBRANCH   1  10
TORSDOF 5
REMARK  Name = ../refined-set-2016/4qj0/4qj0_pocket.pdb
REMARK  220 active torsions:
REMARK  status: ('A' for Active; 'I' for Inactive)
REMARK    1  A    between atoms: _1  and  _5
REMARK    2  A    between atoms: _5  and  _6
REMARK    3  A    between atoms: _5  and  _8
REMARK    4  A    between atoms: _8  and  _9
REMARK    5  A    between atoms: _9  and  _10
REMARK    6  A    between atoms: _10  and  _11
REMARK    7  A    between atoms: _11  and  _12
REMARK    8  A    between atoms: _16  and  _18
REMARK    9  A    between atoms: _18  and  _19
REMARK   10  A    between atoms: _18  and  _21
REMARK   11  A    between atoms: _21  and  _22
REMARK   12  A    between atoms: _32  and  _34
REMARK   13  A    between atoms: _34  and  _35
REMARK   14  A    between atoms: _34  and  _37
REMARK   15  A    between atoms: _37  and  _38
REMARK   16  A    between atoms: _43  and  _44
REMARK   17  A    between atoms: _46  and  _48
REMARK   18  A    between atoms: _48  and  _49
REMARK   19  A    between atoms: _48  and  _51
REMARK   20  A    between atoms: _51  and  _52
REMARK   21  A    between atoms: _57  and  _58
REMARK   22  A    between atoms: _60  and  _62
REMARK   23  A    between atoms: _62  and  _63
REMARK   24  A    between atoms: _62  and  _65
REMARK   25  A    between atoms: _65  and  _66
REMARK   26  A    between atoms: _69  and  _70
REMARK   27  A    between atoms: _75  and  _77
REMARK   28  A    between atoms: _77  and  _78
REMARK   29  A    between atoms: _77  and  _80
REMARK   30  A    between atoms: _80  and  _81
REMARK   31  A    between atoms: _84  and  _86
REMARK   32  A    between atoms: _86  and  _87
REMARK   33  A    between atoms: _86  and  _89
REMARK   34  A    between atoms: _89  and  _90
REMARK   35  A    between atoms: _95  and  _97
REMARK   36  A    between atoms: _97  and  _98
REMARK   37  A    between atoms: _100  and  _102
REMARK   38  A    between atoms: _102  and  _103
REMARK   39  A    between atoms: _102  and  _105
REMARK   40  A    between atoms: _105  and  _106
REMARK   41  A    between atoms: _111  and  _113
REMARK   42  A    between atoms: _113  and  _114
REMARK   43  A    between atoms: _113  and  _116
REMARK   44  A    between atoms: _116  and  _117
REMARK   45  A    between atoms: _119  and  _121
REMARK   46  A    between atoms: _121  and  _122
REMARK   47  A    between atoms: _121  and  _124
REMARK   48  A    between atoms: _127  and  _129
REMARK   49  A    between atoms: _129  and  _130
REMARK   50  A    between atoms: _129  and  _132
REMARK   51  A    between atoms: _132  and  _133
REMARK   52  A    between atoms: _133  and  _134
REMARK   53  A    between atoms: _134  and  _135
REMARK   54  A    between atoms: _135  and  _136
REMARK   55  A    between atoms: _140  and  _142
REMARK   56  A    between atoms: _142  and  _143
REMARK   57  A    between atoms: _142  and  _145
REMARK   58  A    between atoms: _145  and  _146
REMARK   59  A    between atoms: _149  and  _151
REMARK   60  A    between atoms: _151  and  _152
REMARK   61  A    between atoms: _151  and  _154
REMARK   62  A    between atoms: _154  and  _155
REMARK   63  A    between atoms: _160  and  _162
REMARK   64  A    between atoms: _162  and  _163
REMARK   65  A    between atoms: _166  and  _168
REMARK   66  A    between atoms: _168  and  _169
REMARK   67  A    between atoms: _168  and  _171
REMARK   68  A    between atoms: _171  and  _172
REMARK   69  A    between atoms: _175  and  _177
REMARK   70  A    between atoms: _177  and  _178
REMARK   71  A    between atoms: _177  and  _180
REMARK   72  A    between atoms: _180  and  _181
REMARK   73  A    between atoms: _181  and  _182
REMARK   74  A    between atoms: _187  and  _189
REMARK   75  A    between atoms: _189  and  _190
REMARK   76  A    between atoms: _189  and  _192
REMARK   77  A    between atoms: _192  and  _193
REMARK   78  A    between atoms: _196  and  _198
REMARK   79  A    between atoms: _209  and  _212
REMARK   80  A    between atoms: _212  and  _213
REMARK   81  A    between atoms: _218  and  _219
REMARK   82  A    between atoms: _227  and  _229
REMARK   83  A    between atoms: _229  and  _230
REMARK   84  A    between atoms: _229  and  _232
REMARK   85  A    between atoms: _232  and  _233
REMARK   86  A    between atoms: _243  and  _245
REMARK   87  A    between atoms: _245  and  _246
REMARK   88  A    between atoms: _245  and  _248
REMARK   89  A    between atoms: _248  and  _249
REMARK   90  A    between atoms: _249  and  _250
REMARK   91  A    between atoms: _253  and  _255
REMARK   92  A    between atoms: _255  and  _256
REMARK   93  A    between atoms: _255  and  _258
REMARK   94  A    between atoms: _258  and  _259
REMARK   95  A    between atoms: _264  and  _266
REMARK   96  A    between atoms: _266  and  _267
REMARK   97  A    between atoms: _266  and  _269
REMARK   98  A    between atoms: _269  and  _270
REMARK   99  A    between atoms: _270  and  _271
REMARK  100  A    between atoms: _274  and  _276
REMARK  101  A    between atoms: _276  and  _277
REMARK  102  A    between atoms: _276  and  _279
REMARK  103  A    between atoms: _279  and  _280
REMARK  104  A    between atoms: _283  and  _285
REMARK  105  A    between atoms: _285  and  _286
REMARK  106  A    between atoms: _285  and  _288
REMARK  107  A    between atoms: _288  and  _289
REMARK  108  A    between atoms: _290  and  ZN_582
REMARK  109  A    between atoms: _294  and  _296
REMARK  110  A    between atoms: _296  and  _297
REMARK  111  A    between atoms: _296  and  _299
REMARK  112  A    between atoms: _299  and  _300
REMARK  113  A    between atoms: _303  and  _305
REMARK  114  A    between atoms: _305  and  _306
REMARK  115  A    between atoms: _305  and  _308
REMARK  116  A    between atoms: _311  and  _313
REMARK  117  A    between atoms: _313  and  _314
REMARK  118  A    between atoms: _313  and  _316
REMARK  119  A    between atoms: _316  and  _317
REMARK  120  A    between atoms: _322  and  _324
REMARK  121  A    between atoms: _324  and  _325
REMARK  122  A    between atoms: _324  and  _327
REMARK  123  A    between atoms: _327  and  _328
REMARK  124  A    between atoms: _333  and  _334
REMARK  125  A    between atoms: _336  and  _338
REMARK  126  A    between atoms: _338  and  _339
REMARK  127  A    between atoms: _338  and  _341
REMARK  128  A    between atoms: _341  and  _342
REMARK  129  A    between atoms: _345  and  _347
REMARK  130  A    between atoms: _347  and  _348
REMARK  131  A    between atoms: _351  and  _353
REMARK  132  A    between atoms: _353  and  _354
REMARK  133  A    between atoms: _353  and  _356
REMARK  134  A    between atoms: _356  and  _357
REMARK  135  A    between atoms: _359  and  _361
REMARK  136  A    between atoms: _361  and  _362
REMARK  137  A    between atoms: _361  and  _364
REMARK  138  A    between atoms: _364  and  _365
REMARK  139  A    between atoms: _368  and  _370
REMARK  140  A    between atoms: _370  and  _371
REMARK  141  A    between atoms: _374  and  _376
REMARK  142  A    between atoms: _376  and  _377
REMARK  143  A    between atoms: _376  and  _379
REMARK  144  A    between atoms: _379  and  _380
REMARK  145  A    between atoms: _382  and  _384
REMARK  146  A    between atoms: _384  and  _385
REMARK  147  A    between atoms: _384  and  _387
REMARK  148  A    between atoms: _387  and  _388
REMARK  149  A    between atoms: _393  and  _395
REMARK  150  A    between atoms: _395  and  _396
REMARK  151  A    between atoms: _398  and  _400
REMARK  152  A    between atoms: _400  and  _401
REMARK  153  A    between atoms: _400  and  _403
REMARK  154  A    between atoms: _403  and  _404
REMARK  155  A    between atoms: _407  and  _409
REMARK  156  A    between atoms: _409  and  _410
REMARK  157  A    between atoms: _413  and  _415
REMARK  158  A    between atoms: _415  and  _416
REMARK  159  A    between atoms: _415  and  _418
REMARK  160  A    between atoms: _421  and  _423
REMARK  161  A    between atoms: _423  and  _424
REMARK  162  A    between atoms: _423  and  _426
REMARK  163  A    between atoms: _426  and  _427
REMARK  164  A    between atoms: _430  and  _432
REMARK  165  A    between atoms: _432  and  _433
REMARK  166  A    between atoms: _436  and  _438
REMARK  167  A    between atoms: _438  and  _439
REMARK  168  A    between atoms: _438  and  _441
REMARK  169  A    between atoms: _441  and  _442
REMARK  170  A    between atoms: _444  and  _446
REMARK  171  A    between atoms: _446  and  _447
REMARK  172  A    between atoms: _446  and  _449
REMARK  173  A    between atoms: _449  and  _450
REMARK  174  A    between atoms: _453  and  _455
REMARK  175  A    between atoms: _455  and  _456
REMARK  176  A    between atoms: _455  and  _458
REMARK  177  A    between atoms: _458  and  _459
REMARK  178  A    between atoms: _462  and  _464
REMARK  179  A    between atoms: _464  and  _465
REMARK  180  A    between atoms: _464  and  _467
REMARK  181  A    between atoms: _467  and  _468
REMARK  182  A    between atoms: _472  and  _473
REMARK  183  A    between atoms: _479  and  _480
REMARK  184  A    between atoms: _485  and  _487
REMARK  185  A    between atoms: _487  and  _488
REMARK  186  A    between atoms: _487  and  _490
REMARK  187  A    between atoms: _492  and  _494
REMARK  188  A    between atoms: _494  and  _495
REMARK  189  A    between atoms: _494  and  _497
REMARK  190  A    between atoms: _497  and  _498
REMARK  191  A    between atoms: _503  and  _505
REMARK  192  A    between atoms: _505  and  _506
REMARK  193  A    between atoms: _505  and  _508
REMARK  194  A    between atoms: _508  and  _509
REMARK  195  A    between atoms: _512  and  _514
REMARK  196  A    between atoms: _514  and  _515
REMARK  197  A    between atoms: _514  and  _517
REMARK  198  A    between atoms: _520  and  _522
REMARK  199  A    between atoms: _522  and  _523
REMARK  200  A    between atoms: _522  and  _525
REMARK  201  A    between atoms: _525  and  _526
REMARK  202  A    between atoms: _529  and  _531
REMARK  203  A    between atoms: _531  and  _532
REMARK  204  A    between atoms: _531  and  _534
REMARK  205  A    between atoms: _534  and  _535
REMARK  206  A    between atoms: _545  and  _547
REMARK  207  A    between atoms: _547  and  _548
REMARK  208  A    between atoms: _547  and  _550
REMARK  209  A    between atoms: _550  and  _551
REMARK  210  A    between atoms: _551  and  _552
REMARK  211  A    between atoms: _554  and  _556
REMARK  212  A    between atoms: _556  and  _557
REMARK  213  A    between atoms: _556  and  _559
REMARK  214  A    between atoms: _559  and  _560
REMARK  215  A    between atoms: _565  and  _567
REMARK  216  A    between atoms: _567  and  _568
REMARK  217  A    between atoms: _567  and  _570
REMARK  218  A    between atoms: _570  and  _571
REMARK  219  A    between atoms: _571  and  _572
REMARK  220  A    between atoms: _572  and  _573
REMARK                            x       y       z     vdW  Elec       q    Type
REMARK                         _______ _______ _______ _____ _____    ______ ____
ROOT
ATOM      1  CA  THR A   1      30.600   5.093  23.603  0.00  0.00    +0.160 C 
ENDROOT
BRANCH   1   2
ATOM      2  N   THR A   1      31.332   3.880  23.226  0.00  0.00    -0.237 NA
ATOM      3  H   THR A   1      31.074   3.382  22.350  0.00  0.00    +0.142 HD
ENDBRANCH   1   2
BRANCH   1   4
ATOM      4  C   THR A   1      29.094   4.850  23.638  0.00  0.00    +0.227 C 
ATOM      5  O   THR A   1      28.531   4.196  22.756  0.00  0.00    -0.287 OA
ENDBRANCH   1   4
BRANCH   1   6
ATOM      6  CB  THR A   1      30.908   6.262  22.661  0.00  0.00    +0.134 C 
ATOM      7  CG2 THR A   1      30.108   7.553  23.046  0.00  0.00    +0.034 C 
BRANCH   6   8
ATOM      8  OG1 THR A   1      32.314   6.537  22.641  0.00  0.00    -0.383 OA
ATOM      9  HG1 THR A   1      32.802   5.735  22.327  0.00  0.00    +0.210 HD
ENDBRANCH   6   8
ENDBRANCH   1   6
TORSDOF 4
REMARK  Name = ../refined-set-2016/4qj0/4qj0_pocket.pdb
REMARK  220 active torsions:
REMARK  status: ('A' for Active; 'I' for Inactive)
REMARK    1  A    between atoms: _1  and  _5
REMARK    2  A    between atoms: _5  and  _6
REMARK    3  A    between atoms: _5  and  _8
REMARK    4  A    between atoms: _8  and  _9
REMARK    5  A    between atoms: _9  and  _10
REMARK    6  A    between atoms: _10  and  _11
REMARK    7  A    between atoms: _11  and  _12
REMARK    8  A    between atoms: _16  and  _18
REMARK    9  A    between atoms: _18  and  _19
REMARK   10  A    between atoms: _18  and  _21
REMARK   11  A    between atoms: _21  and  _22
REMARK   12  A    between atoms: _32  and  _34
REMARK   13  A    between atoms: _34  and  _35
REMARK   14  A    between atoms: _34  and  _37
REMARK   15  A    between atoms: _37  and  _38
REMARK   16  A    between atoms: _43  and  _44
REMARK   17  A    between atoms: _46  and  _48
REMARK   18  A    between atoms: _48  and  _49
REMARK   19  A    between atoms: _48  and  _51
REMARK   20  A    between atoms: _51  and  _52
REMARK   21  A    between atoms: _57  and  _58
REMARK   22  A    between atoms: _60  and  _62
REMARK   23  A    between atoms: _62  and  _63
REMARK   24  A    between atoms: _62  and  _65
REMARK   25  A    between atoms: _65  and  _66
REMARK   26  A    between atoms: _69  and  _70
REMARK   27  A    between atoms: _75  and  _77
REMARK   28  A    between atoms: _77  and  _78
REMARK   29  A    between atoms: _77  and  _80
REMARK   30  A    between atoms: _80  and  _81
REMARK   31  A    between atoms: _84  and  _86
REMARK   32  A    between atoms: _86  and  _87
REMARK   33  A    between atoms: _86  and  _89
REMARK   34  A    between atoms: _89  and  _90
REMARK   35  A    between atoms: _95  and  _97
REMARK   36  A    between atoms: _97  and  _98
REMARK   37  A    between atoms: _100  and  _102
REMARK   38  A    between atoms: _102  and  _103
REMARK   39  A    between atoms: _102  and  _105
REMARK   40  A    between atoms: _105  and  _106
REMARK   41  A    between atoms: _111  and  _113
REMARK   42  A    between atoms: _113  and  _114
REMARK   43  A    between atoms: _113  and  _116
REMARK   44  A    between atoms: _116  and  _117
REMARK   45  A    between atoms: _119  and  _121
REMARK   46  A    between atoms: _121  and  _122
REMARK   47  A    between atoms: _121  and  _124
REMARK   48  A    between atoms: _127  and  _129
REMARK   49  A    between atoms: _129  and  _130
REMARK   50  A    between atoms: _129  and  _132
REMARK   51  A    between atoms: _132  and  _133
REMARK   52  A    between atoms: _133  and  _134
REMARK   53  A    between atoms: _134  and  _135
REMARK   54  A    between atoms: _135  and  _136
REMARK   55  A    between atoms: _140  and  _142
REMARK   56  A    between atoms: _142  and  _143
REMARK   57  A    between atoms: _142  and  _145
REMARK   58  A    between atoms: _145  and  _146
REMARK   59  A    between atoms: _149  and  _151
REMARK   60  A    between atoms: _151  and  _152
REMARK   61  A    between atoms: _151  and  _154
REMARK   62  A    between atoms: _154  and  _155
REMARK   63  A    between atoms: _160  and  _162
REMARK   64  A    between atoms: _162  and  _163
REMARK   65  A    between atoms: _166  and  _168
REMARK   66  A    between atoms: _168  and  _169
REMARK   67  A    between atoms: _168  and  _171
REMARK   68  A    between atoms: _171  and  _172
REMARK   69  A    between atoms: _175  and  _177
REMARK   70  A    between atoms: _177  and  _178
REMARK   71  A    between atoms: _177  and  _180
REMARK   72  A    between atoms: _180  and  _181
REMARK   73  A    between atoms: _181  and  _182
REMARK   74  A    between atoms: _187  and  _189
REMARK   75  A    between atoms: _189  and  _190
REMARK   76  A    between atoms: _189  and  _192
REMARK   77  A    between atoms: _192  and  _193
REMARK   78  A    between atoms: _196  and  _198
REMARK   79  A    between atoms: _209  and  _212
REMARK   80  A    between atoms: _212  and  _213
REMARK   81  A    between atoms: _218  and  _219
REMARK   82  A    between atoms: _227  and  _229
REMARK   83  A    between atoms: _229  and  _230
REMARK   84  A    between atoms: _229  and  _232
REMARK   85  A    between atoms: _232  and  _233
REMARK   86  A    between atoms: _243  and  _245
REMARK   87  A    between atoms: _245  and  _246
REMARK   88  A    between atoms: _245  and  _248
REMARK   89  A    between atoms: _248  and  _249
REMARK   90  A    between atoms: _249  and  _250
REMARK   91  A    between atoms: _253  and  _255
REMARK   92  A    between atoms: _255  and  _256
REMARK   93  A    between atoms: _255  and  _258
REMARK   94  A    between atoms: _258  and  _259
REMARK   95  A    between atoms: _264  and  _266
REMARK   96  A    between atoms: _266  and  _267
REMARK   97  A    between atoms: _266  and  _269
REMARK   98  A    between atoms: _269  and  _270
REMARK   99  A    between atoms: _270  and  _271
REMARK  100  A    between atoms: _274  and  _276
REMARK  101  A    between atoms: _276  and  _277
REMARK  102  A    between atoms: _276  and  _279
REMARK  103  A    between atoms: _279  and  _280
REMARK  104  A    between atoms: _283  and  _285
REMARK  105  A    between atoms: _285  and  _286
REMARK  106  A    between atoms: _285  and  _288
REMARK  107  A    between atoms: _288  and  _289
REMARK  108  A    between atoms: _290  and  ZN_582
REMARK  109  A    between atoms: _294  and  _296
REMARK  110  A    between atoms: _296  and  _297
REMARK  111  A    between atoms: _296  and  _299
REMARK  112  A    between atoms: _299  and  _300
REMARK  113  A    between atoms: _303  and  _305
REMARK  114  A    between atoms: _305  and  _306
REMARK  115  A    between atoms: _305  and  _308
REMARK  116  A    between atoms: _311  and  _313
REMARK  117  A    between atoms: _313  and  _314
REMARK  118  A    between atoms: _313  and  _316
REMARK  119  A    between atoms: _316  and  _317
REMARK  120  A    between atoms: _322  and  _324
REMARK  121  A    between atoms: _324  and  _325
REMARK  122  A    between atoms: _324  and  _327
REMARK  123  A    between atoms: _327  and  _328
REMARK  124  A    between atoms: _333  and  _334
REMARK  125  A    between atoms: _336  and  _338
REMARK  126  A    between atoms: _338  and  _339
REMARK  127  A    between atoms: _338  and  _341
REMARK  128  A    between atoms: _341  and  _342
REMARK  129  A    between atoms: _345  and  _347
REMARK  130  A    between atoms: _347  and  _348
REMARK  131  A    between atoms: _351  and  _353
REMARK  132  A    between atoms: _353  and  _354
REMARK  133  A    between atoms: _353  and  _356
REMARK  134  A    between atoms: _356  and  _357
REMARK  135  A    between atoms: _359  and  _361
REMARK  136  A    between atoms: _361  and  _362
REMARK  137  A    between atoms: _361  and  _364
REMARK  138  A    between atoms: _364  and  _365
REMARK  139  A    between atoms: _368  and  _370
REMARK  140  A    between atoms: _370  and  _371
REMARK  141  A    between atoms: _374  and  _376
REMARK  142  A    between atoms: _376  and  _377
REMARK  143  A    between atoms: _376  and  _379
REMARK  144  A    between atoms: _379  and  _380
REMARK  145  A    between atoms: _382  and  _384
REMARK  146  A    between atoms: _384  and  _385
REMARK  147  A    between atoms: _384  and  _387
REMARK  148  A    between atoms: _387  and  _388
REMARK  149  A    between atoms: _393  and  _395
REMARK  150  A    between atoms: _395  and  _396
REMARK  151  A    between atoms: _398  and  _400
REMARK  152  A    between atoms: _400  and  _401
REMARK  153  A    between atoms: _400  and  _403
REMARK  154  A    between atoms: _403  and  _404
REMARK  155  A    between atoms: _407  and  _409
REMARK  156  A    between atoms: _409  and  _410
REMARK  157  A    between atoms: _413  and  _415
REMARK  158  A    between atoms: _415  and  _416
REMARK  159  A    between atoms: _415  and  _418
REMARK  160  A    between atoms: _421  and  _423
REMARK  161  A    between atoms: _423  and  _424
REMARK  162  A    between atoms: _423  and  _426
REMARK  163  A    between atoms: _426  and  _427
REMARK  164  A    between atoms: _430  and  _432
REMARK  165  A    between atoms: _432  and  _433
REMARK  166  A    between atoms: _436  and  _438
REMARK  167  A    between atoms: _438  and  _439
REMARK  168  A    between atoms: _438  and  _441
REMARK  169  A    between atoms: _441  and  _442
REMARK  170  A    between atoms: _444  and  _446
REMARK  171  A    between atoms: _446  and  _447
REMARK  172  A    between atoms: _446  and  _449
REMARK  173  A    between atoms: _449  and  _450
REMARK  174  A    between atoms: _453  and  _455
REMARK  175  A    between atoms: _455  and  _456
REMARK  176  A    between atoms: _455  and  _458
REMARK  177  A    between atoms: _458  and  _459
REMARK  178  A    between atoms: _462  and  _464
REMARK  179  A    between atoms: _464  and  _465
REMARK  180  A    between atoms: _464  and  _467
REMARK  181  A    between atoms: _467  and  _468
REMARK  182  A    between atoms: _472  and  _473
REMARK  183  A    between atoms: _479  and  _480
REMARK  184  A    between atoms: _485  and  _487
REMARK  185  A    between atoms: _487  and  _488
REMARK  186  A    between atoms: _487  and  _490
REMARK  187  A    between atoms: _492  and  _494
REMARK  188  A    between atoms: _494  and  _495
REMARK  189  A    between atoms: _494  and  _497
REMARK  190  A    between atoms: _497  and  _498
REMARK  191  A    between atoms: _503  and  _505
REMARK  192  A    between atoms: _505  and  _506
REMARK  193  A    between atoms: _505  and  _508
REMARK  194  A    between atoms: _508  and  _509
REMARK  195  A    between atoms: _512  and  _514
REMARK  196  A    between atoms: _514  and  _515
REMARK  197  A    between atoms: _514  and  _517
REMARK  198  A    between atoms: _520  and  _522
REMARK  199  A    between atoms: _522  and  _523
REMARK  200  A    between atoms: _522  and  _525
REMARK  201  A    between atoms: _525  and  _526
REMARK  202  A    between atoms: _529  and  _531
REMARK  203  A    between atoms: _531  and  _532
REMARK  204  A    between atoms: _531  and  _534
REMARK  205  A    between atoms: _534  and  _535
REMARK  206  A    between atoms: _545  and  _547
REMARK  207  A    between atoms: _547  and  _548
REMARK  208  A    between atoms: _547  and  _550
REMARK  209  A    between atoms: _550  and  _551
REMARK  210  A    between atoms: _551  and  _552
REMARK  211  A    between atoms: _554  and  _556
REMARK  212  A    between atoms: _556  and  _557
REMARK  213  A    between atoms: _556  and  _559
REMARK  214  A    between atoms: _559  and  _560
REMARK  215  A    between atoms: _565  and  _567
REMARK  216  A    between atoms: _567  and  _568
REMARK  217  A    between atoms: _567  and  _570
REMARK  218  A    between atoms: _570  and  _571
REMARK  219  A    between atoms: _571  and  _572
REMARK  220  A    between atoms: _572  and  _573
REMARK                            x       y       z     vdW  Elec       q    Type
REMARK                         _______ _______ _______ _____ _____    ______ ____
ROOT
ATOM      1  CA  VAL A   5      26.276   1.854  21.822  0.00  0.00    +0.149 C 
ENDROOT
BRANCH   1   4
ATOM      2  C   SER A   4      24.335   3.185  21.244  0.00  0.00    +0.243 C 
ATOM      3  O   SER A   4      24.732   4.197  21.850  0.00  0.00    -0.273 OA
ATOM      4  N   VAL A   5      24.929   1.997  21.281  0.00  0.00    -0.297 N 
ATOM      5  H   VAL A   5      24.428   1.160  20.920  0.00  0.00    +0.150 HD
BRANCH   2   6
ATOM      6  CA  SER A   4      23.048   3.229  20.404  0.00  0.00    +0.178 C 
BRANCH   6   8
ATOM      7  C   HIS A   3      21.430   5.040  20.070  0.00  0.00    +0.241 C 
ATOM      8  N   SER A   4      22.679   4.642  20.336  0.00  0.00    -0.295 N 
ATOM      9  H   SER A   4      23.412   5.362  20.500  0.00  0.00    +0.150 HD
ATOM     10  O   HIS A   3      20.515   4.273  19.823  0.00  0.00    -0.273 OA
BRANCH   7  11
ATOM     11  CA  HIS A   3      21.172   6.505  20.059  0.00  0.00    +0.155 C 
BRANCH  11  14
ATOM     12  C   GLY A   2      21.369   7.852  22.132  0.00  0.00    +0.243 C 
ATOM     13  O   GLY A   2      20.166   7.826  22.326  0.00  0.00    -0.273 OA
ATOM     14  N   HIS A   3      21.950   7.285  21.067  0.00  0.00    -0.297 N 
ATOM     15  H   HIS A   3      22.976   7.391  20.938  0.00  0.00    +0.150 HD
BRANCH  12  16
ATOM     16  CA  GLY A   2      22.307   8.506  23.139  0.00  0.00    +0.176 C 
BRANCH  16  18
ATOM     17  C   ASN A   1      24.484   8.792  22.095  0.00  0.00    +0.239 C 
ATOM     18  N   GLY A   2      23.683   8.116  22.901  0.00  0.00    -0.296 N 
ATOM     19  H   GLY A   2      24.054   7.272  23.383  0.00  0.00    +0.150 HD
ATOM     20  O   ASN A   1      24.094   9.775  21.434  0.00  0.00    -0.274 OA
BRANCH  17  21
ATOM     21  CA  ASN A   1      25.935   8.304  22.062  0.00  0.00    +0.154 C 
BRANCH  21  22
ATOM     22  N   ASN A   1      26.077   7.024  22.725  0.00  0.00    -0.238 NA
ATOM     23  H   ASN A   1      25.708   6.162  22.275  0.00  0.00    +0.142 HD
ENDBRANCH  21  22
BRANCH  21  24
ATOM     24  CB  ASN A   1      26.451   8.189  20.618  0.00  0.00    +0.111 C 
BRANCH  24  25
ATOM     25  CG  ASN A   1      25.629   7.242  19.770  0.00  0.00    +0.221 C 
ATOM     26  OD1 ASN A   1      24.544   6.801  20.129  0.00  0.00    -0.275 OA
ATOM     27  ND2 ASN A   1      26.180   6.934  18.571  0.00  0.00    -0.329 N 
ATOM     28 HD21 ASN A   1      27.104   7.331  18.306  0.00  0.00    +0.145 HD
ATOM     29 HD22 ASN A   1      25.679   6.301  17.916  0.00  0.00    +0.145 HD
ENDBRANCH  24  25
ENDBRANCH  21  24
ENDBRANCH  17  21
ENDBRANCH  16  18
ENDBRANCH  12  16
ENDBRANCH  11  14
BRANCH  11  30
ATOM     30  CB  HIS A   3      21.341   7.056  18.638  0.00  0.00    +0.076 C 
BRANCH  30  31
ATOM     31  CG  HIS A   3      21.087   8.564  18.486  0.00  0.00    +0.082 A 
ATOM     32  ND1 HIS A   3      19.821   9.156  18.547  0.00  0.00    -0.227 NA
ATOM     33  CE1 HIS A   3      19.938  10.483  18.386  0.00  0.00    +0.199 A 
ATOM     34  NE2 HIS A   3      21.252  10.761  18.161  0.00  0.00    -0.221 NA
ATOM     35  CD2 HIS A   3      21.976   9.581  18.241  0.00  0.00    +0.115 A 
ENDBRANCH  30  31
ENDBRANCH  11  30
ENDBRANCH   7  11
ENDBRANCH   6   8
BRANCH   6  36
ATOM     36  CB  SER A   4      23.265   2.694  18.958  0.00  0.00    +0.166 C 
BRANCH  36  37
ATOM     37  OG  SER A   4      23.744   1.321  19.002  0.00  0.00    -0.380 OA
ATOM     38  H   SER A   4      23.076   0.754  19.463  0.00  0.00    +0.211 HD
ENDBRANCH  36  37
ENDBRANCH   6  36
ENDBRANCH   2   6
ENDBRANCH   1   4
BRANCH   1  39
ATOM     39  C   VAL A   5      27.176   1.518  20.644  0.00  0.00    +0.241 C 
ATOM     40  N   LYS A   6      28.285   2.226  20.542  0.00  0.00    -0.297 N 
ATOM     41  H   LYS A   6      28.519   2.908  21.292  0.00  0.00    +0.150 HD
ATOM     42  O   VAL A   5      26.858   0.611  19.850  0.00  0.00    -0.273 OA
BRANCH  40  43
ATOM     43  CA  LYS A   6      29.179   2.083  19.426  0.00  0.00    +0.149 C 
BRANCH  43  44
ATOM     44  C   LYS A   6      30.584   1.841  19.876  0.00  0.00    +0.241 C 
ATOM     45  O   LYS A   6      30.981   2.365  20.922  0.00  0.00    -0.273 OA
ATOM     46  N   LEU A   7      31.265   0.944  19.144  0.00  0.00    -0.297 N 
ATOM     47  H   LEU A   7      30.767   0.427  18.391  0.00  0.00    +0.150 HD
BRANCH  46  48
ATOM     48  CA  LEU A   7      32.711   0.665  19.376  0.00  0.00    +0.149 C 
BRANCH  48  49
ATOM     49  C   LEU A   7      33.515   1.280  18.230  0.00  0.00    +0.241 C 
ATOM     50  N   ASN A   8      34.537   2.106  18.514  0.00  0.00    -0.298 N 
ATOM     51  H   ASN A   8      34.723   2.376  19.501  0.00  0.00    +0.150 HD
ATOM     52  O   LEU A   7      33.257   0.939  17.092  0.00  0.00    -0.273 OA
BRANCH  50  53
ATOM     53  CA  ASN A   8      35.391   2.630  17.443  0.00  0.00    +0.146 C 
BRANCH  53  54
ATOM     54  C   ASN A   8      36.277   1.554  16.944  0.00  0.00    +0.227 C 
ATOM     55  O   ASN A   8      36.694   0.700  17.753  0.00  0.00    -0.286 OA
ENDBRANCH  53  54
BRANCH  53  56
ATOM     56  CB  ASN A   8      36.228   3.846  17.913  0.00  0.00    +0.112 C 
BRANCH  56  57
ATOM     57  CG  ASN A   8      35.368   5.044  18.155  0.00  0.00    +0.222 C 
ATOM     58  ND2 ASN A   8      35.986   6.161  18.675  0.00  0.00    -0.329 N 
ATOM     59 HD21 ASN A   8      37.005   6.142  18.883  0.00  0.00    +0.145 HD
ATOM     60 HD22 ASN A   8      35.433   7.023  18.860  0.00  0.00    +0.145 HD
ATOM     61  OD1 ASN A   8      34.147   5.012  17.887  0.00  0.00    -0.275 OA
ENDBRANCH  56  57
ENDBRANCH  53  56
ENDBRANCH  50  53
ENDBRANCH  48  49
BRANCH  48  62
ATOM     62  CB  LEU A   7      32.893  -0.838  19.477  0.00  0.00    +0.029 C 
BRANCH  62  63
ATOM     63  CG  LEU A   7      34.336  -1.264  19.718  0.00  0.00    +0.002 C 
ATOM     64  CD2 LEU A   7      34.930  -0.660  21.030  0.00  0.00    +0.000 C 
ATOM     65  CD1 LEU A   7      34.429  -2.790  19.686  0.00  0.00    +0.000 C 
ENDBRANCH  62  63
ENDBRANCH  48  62
ENDBRANCH  46  48
ENDBRANCH  43  44
BRANCH  43  66
ATOM     66  CB  LYS A   6      29.116   3.292  18.503  0.00  0.00    +0.029 C 
BRANCH  66  67
ATOM     67  CG  LYS A   6      29.651   4.543  19.072  0.00  0.00    +0.000 C 
BRANCH  67  68
ATOM     68  CD  LYS A   6      29.928   5.569  17.981  0.00  0.00    -0.024 C 
BRANCH  68  69
ATOM     69  CE  LYS A   6      30.761   6.660  18.661  0.00  0.00    -0.086 C 
BRANCH  69  70
ATOM     70  NZ  LYS A   6      30.478   8.046  18.163  0.00  0.00    +0.380 N 
ATOM     71  HZ1 LYS A   6      31.080   8.725  18.671  0.00  0.00    -0.089 HD
ATOM     72  HZ2 LYS A   6      29.477   8.275  18.330  0.00  0.00    -0.089 HD
ATOM     73  HZ3 LYS A   6      30.681   8.095  17.144  0.00  0.00    -0.089 HD
ENDBRANCH  69  70
ENDBRANCH  68  69
ENDBRANCH  67  68
ENDBRANCH  66  67
ENDBRANCH  43  66
ENDBRANCH  40  43
ENDBRANCH   1  39
BRANCH   1  74
ATOM     74  CB  VAL A   5      26.363   0.792  22.951  0.00  0.00    +0.027 C 
ATOM     75  CG2 VAL A   5      27.795   0.665  23.428  0.00  0.00    +0.002 C 
ATOM     76  CG1 VAL A   5      25.880  -0.592  22.500  0.00  0.00    +0.002 C 
ENDBRANCH   1  74
TORSDOF 32
REMARK  Name = ../refined-set-2016/4qj0/4qj0_pocket.pdb
REMARK  220 active torsions:
REMARK  status: ('A' for Active; 'I' for Inactive)
REMARK    1  A    between atoms: _1  and  _5
REMARK    2  A    between atoms: _5  and  _6
REMARK    3  A    between atoms: _5  and  _8
REMARK    4  A    between atoms: _8  and  _9
REMARK    5  A    between atoms: _9  and  _10
REMARK    6  A    between atoms: _10  and  _11
REMARK    7  A    between atoms: _11  and  _12
REMARK    8  A    between atoms: _16  and  _18
REMARK    9  A    between atoms: _18  and  _19
REMARK   10  A    between atoms: _18  and  _21
REMARK   11  A    between atoms: _21  and  _22
REMARK   12  A    between atoms: _32  and  _34
REMARK   13  A    between atoms: _34  and  _35
REMARK   14  A    between atoms: _34  and  _37
REMARK   15  A    between atoms: _37  and  _38
REMARK   16  A    between atoms: _43  and  _44
REMARK   17  A    between atoms: _46  and  _48
REMARK   18  A    between atoms: _48  and  _49
REMARK   19  A    between atoms: _48  and  _51
REMARK   20  A    between atoms: _51  and  _52
REMARK   21  A    between atoms: _57  and  _58
REMARK   22  A    between atoms: _60  and  _62
REMARK   23  A    between atoms: _62  and  _63
REMARK   24  A    between atoms: _62  and  _65
REMARK   25  A    between atoms: _65  and  _66
REMARK   26  A    between atoms: _69  and  _70
REMARK   27  A    between atoms: _75  and  _77
REMARK   28  A    between atoms: _77  and  _78
REMARK   29  A    between atoms: _77  and  _80
REMARK   30  A    between atoms: _80  and  _81
REMARK   31  A    between atoms: _84  and  _86
REMARK   32  A    between atoms: _86  and  _87
REMARK   33  A    between atoms: _86  and  _89
REMARK   34  A    between atoms: _89  and  _90
REMARK   35  A    between atoms: _95  and  _97
REMARK   36  A    between atoms: _97  and  _98
REMARK   37  A    between atoms: _100  and  _102
REMARK   38  A    between atoms: _102  and  _103
REMARK   39  A    between atoms: _102  and  _105
REMARK   40  A    between atoms: _105  and  _106
REMARK   41  A    between atoms: _111  and  _113
REMARK   42  A    between atoms: _113  and  _114
REMARK   43  A    between atoms: _113  and  _116
REMARK   44  A    between atoms: _116  and  _117
REMARK   45  A    between atoms: _119  and  _121
REMARK   46  A    between atoms: _121  and  _122
REMARK   47  A    between atoms: _121  and  _124
REMARK   48  A    between atoms: _127  and  _129
REMARK   49  A    between atoms: _129  and  _130
REMARK   50  A    between atoms: _129  and  _132
REMARK   51  A    between atoms: _132  and  _133
REMARK   52  A    between atoms: _133  and  _134
REMARK   53  A    between atoms: _134  and  _135
REMARK   54  A    between atoms: _135  and  _136
REMARK   55  A    between atoms: _140  and  _142
REMARK   56  A    between atoms: _142  and  _143
REMARK   57  A    between atoms: _142  and  _145
REMARK   58  A    between atoms: _145  and  _146
REMARK   59  A    between atoms: _149  and  _151
REMARK   60  A    between atoms: _151  and  _152
REMARK   61  A    between atoms: _151  and  _154
REMARK   62  A    between atoms: _154  and  _155
REMARK   63  A    between atoms: _160  and  _162
REMARK   64  A    between atoms: _162  and  _163
REMARK   65  A    between atoms: _166  and  _168
REMARK   66  A    between atoms: _168  and  _169
REMARK   67  A    between atoms: _168  and  _171
REMARK   68  A    between atoms: _171  and  _172
REMARK   69  A    between atoms: _175  and  _177
REMARK   70  A    between atoms: _177  and  _178
REMARK   71  A    between atoms: _177  and  _180
REMARK   72  A    between atoms: _180  and  _181
REMARK   73  A    between atoms: _181  and  _182
REMARK   74  A    between atoms: _187  and  _189
REMARK   75  A    between atoms: _189  and  _190
REMARK   76  A    between atoms: _189  and  _192
REMARK   77  A    between atoms: _192  and  _193
REMARK   78  A    between atoms: _196  and  _198
REMARK   79  A    between atoms: _209  and  _212
REMARK   80  A    between atoms: _212  and  _213
REMARK   81  A    between atoms: _218  and  _219
REMARK   82  A    between atoms: _227  and  _229
REMARK   83  A    between atoms: _229  and  _230
REMARK   84  A    between atoms: _229  and  _232
REMARK   85  A    between atoms: _232  and  _233
REMARK   86  A    between atoms: _243  and  _245
REMARK   87  A    between atoms: _245  and  _246
REMARK   88  A    between atoms: _245  and  _248
REMARK   89  A    between atoms: _248  and  _249
REMARK   90  A    between atoms: _249  and  _250
REMARK   91  A    between atoms: _253  and  _255
REMARK   92  A    between atoms: _255  and  _256
REMARK   93  A    between atoms: _255  and  _258
REMARK   94  A    between atoms: _258  and  _259
REMARK   95  A    between atoms: _264  and  _266
REMARK   96  A    between atoms: _266  and  _267
REMARK   97  A    between atoms: _266  and  _269
REMARK   98  A    between atoms: _269  and  _270
REMARK   99  A    between atoms: _270  and  _271
REMARK  100  A    between atoms: _274  and  _276
REMARK  101  A    between atoms: _276  and  _277
REMARK  102  A    between atoms: _276  and  _279
REMARK  103  A    between atoms: _279  and  _280
REMARK  104  A    between atoms: _283  and  _285
REMARK  105  A    between atoms: _285  and  _286
REMARK  106  A    between atoms: _285  and  _288
REMARK  107  A    between atoms: _288  and  _289
REMARK  108  A    between atoms: _290  and  ZN_582
REMARK  109  A    between atoms: _294  and  _296
REMARK  110  A    between atoms: _296  and  _297
REMARK  111  A    between atoms: _296  and  _299
REMARK  112  A    between atoms: _299  and  _300
REMARK  113  A    between atoms: _303  and  _305
REMARK  114  A    between atoms: _305  and  _306
REMARK  115  A    between atoms: _305  and  _308
REMARK  116  A    between atoms: _311  and  _313
REMARK  117  A    between atoms: _313  and  _314
REMARK  118  A    between atoms: _313  and  _316
REMARK  119  A    between atoms: _316  and  _317
REMARK  120  A    between atoms: _322  and  _324
REMARK  121  A    between atoms: _324  and  _325
REMARK  122  A    between atoms: _324  and  _327
REMARK  123  A    between atoms: _327  and  _328
REMARK  124  A    between atoms: _333  and  _334
REMARK  125  A    between atoms: _336  and  _338
REMARK  126  A    between atoms: _338  and  _339
REMARK  127  A    between atoms: _338  and  _341
REMARK  128  A    between atoms: _341  and  _342
REMARK  129  A    between atoms: _345  and  _347
REMARK  130  A    between atoms: _347  and  _348
REMARK  131  A    between atoms: _351  and  _353
REMARK  132  A    between atoms: _353  and  _354
REMARK  133  A    between atoms: _353  and  _356
REMARK  134  A    between atoms: _356  and  _357
REMARK  135  A    between atoms: _359  and  _361
REMARK  136  A    between atoms: _361  and  _362
REMARK  137  A    between atoms: _361  and  _364
REMARK  138  A    between atoms: _364  and  _365
REMARK  139  A    between atoms: _368  and  _370
REMARK  140  A    between atoms: _370  and  _371
REMARK  141  A    between atoms: _374  and  _376
REMARK  142  A    between atoms: _376  and  _377
REMARK  143  A    between atoms: _376  and  _379
REMARK  144  A    between atoms: _379  and  _380
REMARK  145  A    between atoms: _382  and  _384
REMARK  146  A    between atoms: _384  and  _385
REMARK  147  A    between atoms: _384  and  _387
REMARK  148  A    between atoms: _387  and  _388
REMARK  149  A    between atoms: _393  and  _395
REMARK  150  A    between atoms: _395  and  _396
REMARK  151  A    between atoms: _398  and  _400
REMARK  152  A    between atoms: _400  and  _401
REMARK  153  A    between atoms: _400  and  _403
REMARK  154  A    between atoms: _403  and  _404
REMARK  155  A    between atoms: _407  and  _409
REMARK  156  A    between atoms: _409  and  _410
REMARK  157  A    between atoms: _413  and  _415
REMARK  158  A    between atoms: _415  and  _416
REMARK  159  A    between atoms: _415  and  _418
REMARK  160  A    between atoms: _421  and  _423
REMARK  161  A    between atoms: _423  and  _424
REMARK  162  A    between atoms: _423  and  _426
REMARK  163  A    between atoms: _426  and  _427
REMARK  164  A    between atoms: _430  and  _432
REMARK  165  A    between atoms: _432  and  _433
REMARK  166  A    between atoms: _436  and  _438
REMARK  167  A    between atoms: _438  and  _439
REMARK  168  A    between atoms: _438  and  _441
REMARK  169  A    between atoms: _441  and  _442
REMARK  170  A    between atoms: _444  and  _446
REMARK  171  A    between atoms: _446  and  _447
REMARK  172  A    between atoms: _446  and  _449
REMARK  173  A    between atoms: _449  and  _450
REMARK  174  A    between atoms: _453  and  _455
REMARK  175  A    between atoms: _455  and  _456
REMARK  176  A    between atoms: _455  and  _458
REMARK  177  A    between atoms: _458  and  _459
REMARK  178  A    between atoms: _462  and  _464
REMARK  179  A    between atoms: _464  and  _465
REMARK  180  A    between atoms: _464  and  _467
REMARK  181  A    between atoms: _467  and  _468
REMARK  182  A    between atoms: _472  and  _473
REMARK  183  A    between atoms: _479  and  _480
REMARK  184  A    between atoms: _485  and  _487
REMARK  185  A    between atoms: _487  and  _488
REMARK  186  A    between atoms: _487  and  _490
REMARK  187  A    between atoms: _492  and  _494
REMARK  188  A    between atoms: _494  and  _495
REMARK  189  A    between atoms: _494  and  _497
REMARK  190  A    between atoms: _497  and  _498
REMARK  191  A    between atoms: _503  and  _505
REMARK  192  A    between atoms: _505  and  _506
REMARK  193  A    between atoms: _505  and  _508
REMARK  194  A    between atoms: _508  and  _509
REMARK  195  A    between atoms: _512  and  _514
REMARK  196  A    between atoms: _514  and  _515
REMARK  197  A    between atoms: _514  and  _517
REMARK  198  A    between atoms: _520  and  _522
REMARK  199  A    between atoms: _522  and  _523
REMARK  200  A    between atoms: _522  and  _525
REMARK  201  A    between atoms: _525  and  _526
REMARK  202  A    between atoms: _529  and  _531
REMARK  203  A    between atoms: _531  and  _532
REMARK  204  A    between atoms: _531  and  _534
REMARK  205  A    between atoms: _534  and  _535
REMARK  206  A    between atoms: _545  and  _547
REMARK  207  A    between atoms: _547  and  _548
REMARK  208  A    between atoms: _547  and  _550
REMARK  209  A    between atoms: _550  and  _551
REMARK  210  A    between atoms: _551  and  _552
REMARK  211  A    between atoms: _554  and  _556
REMARK  212  A    between atoms: _556  and  _557
REMARK  213  A    between atoms: _556  and  _559
REMARK  214  A    between atoms: _559  and  _560
REMARK  215  A    between atoms: _565  and  _567
REMARK  216  A    between atoms: _567  and  _568
REMARK  217  A    between atoms: _567  and  _570
REMARK  218  A    between atoms: _570  and  _571
REMARK  219  A    between atoms: _571  and  _572
REMARK  220  A    between atoms: _572  and  _573
REMARK                            x       y       z     vdW  Elec       q    Type
REMARK                         _______ _______ _______ _____ _____    ______ ____
ROOT
ATOM      1  C   UNK A   5      26.956  -0.657  16.840  0.00  0.00    +0.000 C 
ATOM      2  C   UNK A   5      25.803  -1.617  16.709  0.00  0.00    +0.000 C 
ATOM      3  N   HIS A   6      24.787  -1.514  17.585  0.00  0.00    +0.000 N 
ATOM      4  H   HIS A   6      24.801  -0.772  18.313  0.00  0.00    +0.000 HD
ATOM      5  CA  HIS A   6      23.664  -2.445  17.513  0.00  0.00    +0.000 C 
ATOM      6  C   HIS A   6      22.309  -1.696  17.548  0.00  0.00    +0.000 C 
ATOM      7  O   HIS A   6      22.192  -0.516  17.867  0.00  0.00    +0.000 OA
ATOM      8  N   UNK A   7      21.266  -2.451  17.209  0.00  0.00    +0.000 N 
ATOM      9  C   UNK A   7      19.851  -1.962  17.198  0.00  0.00    +0.000 C 
ATOM     10  C   UNK A   7      19.353  -1.799  15.768  0.00  0.00    +0.000 C 
ATOM     11  C   UNK A   7      20.126  -0.762  14.977  0.00  0.00    +0.000 A 
ATOM     12  N   UNK A   7      19.845   0.555  15.038  0.00  0.00    +0.000 NA
ATOM     13  C   UNK A   7      20.699   1.236  14.246  0.00  0.00    +0.000 A 
ATOM     14  N   UNK A   7      21.538   0.349  13.683  0.00  0.00    +0.000 N 
ATOM     15 ZN   UNK A   7      23.001   0.713  12.311  0.00  0.00    +0.000 Zn
ATOM     16  N   UNK A   5      24.586   1.045  13.482  0.00  0.00    +0.000 N 
ATOM     17  C   UNK A   5      24.600   0.722  14.796  0.00  0.00    +0.000 A 
ATOM     18  C   UNK A   5      25.856   1.057  15.284  0.00  0.00    +0.000 A 
ATOM     19  N   UNK A   5      26.573   1.489  14.269  0.00  0.00    +0.000 NA
ATOM     20  C   UNK A   5      25.807   1.503  13.142  0.00  0.00    +0.000 A 
ATOM     21  C   UNK A   7      21.220  -0.888  14.118  0.00  0.00    +0.000 A 
ATOM     22  H   UNK A   7      21.445  -3.438  16.936  0.00  0.00    +0.000 HD
ATOM     23  O   UNK A   5      25.826  -2.434  15.806  0.00  0.00    +0.000 OA
ATOM     24  C   UNK A   5      26.465   0.830  16.650  0.00  0.00    +0.000 C 
ENDROOT
BRANCH  15  25
ATOM     25  N   UNK A   7      23.070  -1.122  11.437  0.00  0.00    +0.000 N 
ATOM     26  C   UNK A   7      24.058  -2.081  11.351  0.00  0.00    +0.000 A 
ATOM     27  C   UNK A   7      23.512  -3.144  10.779  0.00  0.00    +0.000 A 
ATOM     28  N   UNK A   7      22.164  -2.852  10.530  0.00  0.00    +0.000 NA
ATOM     29  C   UNK A   7      21.926  -1.674  10.958  0.00  0.00    +0.000 A 
BRANCH  26  30
ATOM     30  C   UNK A   7      25.481  -1.861  11.758  0.00  0.00    +0.000 C 
BRANCH  30  31
ATOM     31  C   UNK A   7      26.212  -3.168  11.988  0.00  0.00    +0.000 C 
BRANCH  31  32
ATOM     32  C   UNK A   7      27.656  -2.835  12.184  0.00  0.00    +0.000 C 
ATOM     33  O   UNK A   7      28.043  -2.225  13.157  0.00  0.00    +0.000 OA
ATOM     34  N   ILE A   4      28.478  -3.266  11.230  0.00  0.00    +0.000 N 
ATOM     35  H   ILE A   4      28.095  -3.861  10.468  0.00  0.00    +0.000 HD
BRANCH  34  36
ATOM     36  CA  ILE A   4      29.919  -2.927  11.216  0.00  0.00    +0.000 C 
BRANCH  36  37
ATOM     37  C   ILE A   4      30.063  -1.978  10.049  0.00  0.00    +0.000 C 
ATOM     38  N   UNK A   5      30.276  -0.687  10.365  0.00  0.00    +0.000 N 
ATOM     39  H   UNK A   5      30.450  -0.429  11.357  0.00  0.00    +0.000 HD
ATOM     40  O   ILE A   4      29.941  -2.399   8.821  0.00  0.00    +0.000 OA
BRANCH  38  41
ATOM     41  C   UNK A   5      30.269   0.344   9.362  0.00  0.00    +0.000 C 
BRANCH  41  42
ATOM     42  C   UNK A   5      31.673   0.507   8.794  0.00  0.00    +0.000 C 
ATOM     43  O   UNK A   5      32.607   0.617   9.560  0.00  0.00    +0.000 OA
ATOM     44  N   HIS A   6      31.761   0.549   7.466  0.00  0.00    +0.000 N 
ATOM     45  H   HIS A   6      30.898   0.384   6.909  0.00  0.00    +0.000 HD
BRANCH  44  46
ATOM     46  CA  HIS A   6      33.062   0.826   6.719  0.00  0.00    +0.000 C 
BRANCH  46  47
ATOM     47  C   HIS A   6      32.882   1.958   5.789  0.00  0.00    +0.000 C 
ATOM     48  N   UNK A   7      33.992   2.620   5.374  0.00  0.00    +0.000 N 
ATOM     49  H   UNK A   7      34.915   2.350   5.771  0.00  0.00    +0.000 HD
ATOM     50  O   HIS A   6      31.756   2.229   5.341  0.00  0.00    +0.000 OA
BRANCH  48  51
ATOM     51  C   UNK A   7      33.936   3.712   4.376  0.00  0.00    +0.000 C 
BRANCH  51  52
ATOM     52  C   UNK A   7      34.977   3.503   3.296  0.00  0.00    +0.000 C 
ATOM     53  O   UNK A   7      35.975   2.804   3.548  0.00  0.00    +0.000 OA
ENDBRANCH  51  52
BRANCH  51  54
ATOM     54  C   UNK A   7      34.221   5.077   5.090  0.00  0.00    +0.000 C 
BRANCH  54  55
ATOM     55  C   UNK A   7      35.636   5.253   5.613  0.00  0.00    +0.000 A 
ATOM     56  C   UNK A   7      35.999   4.744   6.865  0.00  0.00    +0.000 A 
ATOM     57  C   UNK A   7      37.322   4.880   7.368  0.00  0.00    +0.000 A 
ATOM     58  C   UNK A   7      38.244   5.534   6.593  0.00  0.00    +0.000 A 
ATOM     59  C   UNK A   7      37.916   6.099   5.345  0.00  0.00    +0.000 A 
ATOM     60  C   UNK A   7      36.598   5.944   4.854  0.00  0.00    +0.000 A 
BRANCH  58  61
ATOM     61  O   UNK A   7      39.573   5.691   7.026  0.00  0.00    +0.000 OA
ATOM     62  H   UNK A   7      40.087   6.185   6.339  0.00  0.00    +0.000 HD
ENDBRANCH  58  61
ENDBRANCH  54  55
ENDBRANCH  51  54
ENDBRANCH  48  51
ENDBRANCH  46  47
BRANCH  46  63
ATOM     63  CB  HIS A   6      33.499  -0.419   5.908  0.00  0.00    +0.000 C 
BRANCH  63  64
ATOM     64  CG  HIS A   6      33.662  -1.691   6.729  0.00  0.00    +0.000 A 
ATOM     65  ND1 HIS A   6      32.572  -2.360   7.299  0.00  0.00    +0.000 NA
ATOM     66  CE1 HIS A   6      33.023  -3.485   7.943  0.00  0.00    +0.000 A 
ATOM     67  NE2 HIS A   6      34.391  -3.578   7.728  0.00  0.00    +0.000 NA
ATOM     68  CD2 HIS A   6      34.801  -2.453   7.019  0.00  0.00    +0.000 A 
ENDBRANCH  63  64
ENDBRANCH  46  63
ENDBRANCH  44  46
ENDBRANCH  41  42
BRANCH  41  69
ATOM     69  C   UNK A   5      29.808   1.664   9.971  0.00  0.00    +0.000 C 
ATOM     70  C   UNK A   5      28.422   1.520  10.703  0.00  0.00    +0.000 C 
ATOM     71  C   UNK A   5      29.773   2.743   8.891  0.00  0.00    +0.000 C 
ENDBRANCH  41  69
ENDBRANCH  38  41
ENDBRANCH  36  37
BRANCH  36  72
ATOM     72  CB  ILE A   4      30.799  -4.143  11.035  0.00  0.00    +0.000 C 
ATOM     73  CG2 ILE A   4      32.245  -3.596  11.215  0.00  0.00    +0.000 C 
BRANCH  72  74
ATOM     74  CG1 ILE A   4      30.467  -5.231  12.058  0.00  0.00    +0.000 C 
ATOM     75  CD1 ILE A   4      31.327  -6.522  11.959  0.00  0.00    +0.000 C 
ENDBRANCH  72  74
ENDBRANCH  36  72
ENDBRANCH  34  36
ENDBRANCH  31  32
BRANCH  31  76
ATOM     76  N   UNK A   7      25.684  -3.806  13.237  0.00  0.00    +0.000 N 
ATOM     77  H   UNK A   7      25.708  -3.257  14.120  0.00  0.00    +0.000 HD
ATOM     78  C   LEU A   2      25.180  -5.055  13.273  0.00  0.00    +0.000 C 
ATOM     79  O   LEU A   2      24.992  -5.737  12.219  0.00  0.00    +0.000 OA
BRANCH  78  80
ATOM     80  CA  LEU A   2      24.821  -5.573  14.632  0.00  0.00    +0.000 C 
BRANCH  80  81
ATOM     81  N   LEU A   2      23.508  -6.202  14.454  0.00  0.00    +0.000 N 
ATOM     82  C   GLU A   1      22.330  -5.659  14.899  0.00  0.00    +0.000 C 
ATOM     83  O   GLU A   1      22.317  -4.576  15.489  0.00  0.00    +0.000 OA
ATOM     84  H   LEU A   2      23.468  -7.116  13.960  0.00  0.00    +0.000 HD
BRANCH  82  85
ATOM     85  CA  GLU A   1      21.048  -6.422  14.595  0.00  0.00    +0.000 C 
BRANCH  85  86
ATOM     86  N   GLU A   1      20.208  -6.445  15.807  0.00  0.00    +0.000 NA
ATOM     87  H   GLU A   1      20.234  -5.658  16.486  0.00  0.00    +0.000 HD
ENDBRANCH  85  86
BRANCH  85  88
ATOM     88  CB  GLU A   1      20.250  -5.791  13.421  0.00  0.00    +0.000 C 
BRANCH  88  89
ATOM     89  CG  GLU A   1      20.957  -5.748  12.044  0.00  0.00    +0.000 C 
BRANCH  89  90
ATOM     90  CD  GLU A   1      19.998  -5.430  10.906  0.00  0.00    +0.000 C 
ATOM     91  OE2 GLU A   1      18.785  -5.739  11.029  0.00  0.00    +0.000 OA
ATOM     92  OE1 GLU A   1      20.435  -4.927   9.881  0.00  0.00    +0.000 OA
ENDBRANCH  89  90
ENDBRANCH  88  89
ENDBRANCH  85  88
ENDBRANCH  82  85
ENDBRANCH  80  81
BRANCH  80  93
ATOM     93  CB  LEU A   2      25.822  -6.688  14.979  0.00  0.00    +0.000 C 
BRANCH  93  94
ATOM     94  CG  LEU A   2      27.302  -6.233  14.877  0.00  0.00    +0.000 C 
ATOM     95  CD2 LEU A   2      27.666  -5.441  16.106  0.00  0.00    +0.000 C 
ATOM     96  CD1 LEU A   2      28.188  -7.461  14.762  0.00  0.00    +0.000 C 
ENDBRANCH  93  94
ENDBRANCH  80  93
ENDBRANCH  78  80
ENDBRANCH  31  76
ENDBRANCH  30  31
ENDBRANCH  26  30
ENDBRANCH  15  25
BRANCH   1  99
ATOM     97  C   ILE A   4      29.278  -0.603  16.054  0.00  0.00    +0.000 C 
ATOM     98  O   ILE A   4      29.599   0.126  16.983  0.00  0.00    +0.000 OA
ATOM     99  N   UNK A   5      28.027  -1.017  15.888  0.00  0.00    +0.000 N 
ATOM    100  H   UNK A   5      27.795  -1.610  15.066  0.00  0.00    +0.000 HD
BRANCH  97 101
ATOM    101  CA  ILE A   4      30.257  -1.067  15.005  0.00  0.00    +0.000 C 
BRANCH 101 103
ATOM    102  C   UNK A   3      31.776   0.416  13.863  0.00  0.00    +0.000 C 
ATOM    103  N   ILE A   4      31.401  -0.174  14.980  0.00  0.00    +0.000 N 
ATOM    104  H   ILE A   4      31.932   0.003  15.856  0.00  0.00    +0.000 HD
ATOM    105  O   UNK A   3      31.421   0.085  12.731  0.00  0.00    +0.000 OA
BRANCH 102 106
ATOM    106  C   UNK A   3      32.753   1.616  14.061  0.00  0.00    +0.000 C 
BRANCH 106 109
ATOM    107  C   LEU A   2      34.491   2.731  12.750  0.00  0.00    +0.000 C 
ATOM    108  O   LEU A   2      34.916   3.213  13.752  0.00  0.00    +0.000 OA
ATOM    109  N   UNK A   3      33.412   1.926  12.798  0.00  0.00    +0.000 N 
ATOM    110  H   UNK A   3      33.042   1.517  11.916  0.00  0.00    +0.000 HD
BRANCH 107 111
ATOM    111  CA  LEU A   2      35.137   2.989  11.393  0.00  0.00    +0.000 C 
BRANCH 111 113
ATOM    112  C   GLU A   1      36.308   1.353  10.040  0.00  0.00    +0.000 C 
ATOM    113  N   LEU A   2      35.169   1.842  10.524  0.00  0.00    +0.000 N 
ATOM    114  H   LEU A   2      34.273   1.381  10.266  0.00  0.00    +0.000 HD
ATOM    115  O   GLU A   1      37.386   1.972  10.109  0.00  0.00    +0.000 OA
BRANCH 112 116
ATOM    116  CA  GLU A   1      36.197   0.001   9.336  0.00  0.00    +0.000 C 
ATOM    117  CB  GLU A   1      36.404  -1.106  10.348  0.00  0.00    +0.000 C 
BRANCH 116 118
ATOM    118  N   GLU A   1      37.127  -0.122   8.201  0.00  0.00    +0.000 NA
ATOM    119  H   GLU A   1      37.922  -0.790   8.252  0.00  0.00    +0.000 HD
ENDBRANCH 116 118
ENDBRANCH 112 116
ENDBRANCH 111 113
BRANCH 111 120
ATOM    120  CB  LEU A   2      34.526   4.186  10.650  0.00  0.00    +0.000 C 
ATOM    121  CG2 LEU A   2      33.046   3.886  10.188  0.00  0.00    +0.000 C 
BRANCH 120 122
ATOM    122  OG1 LEU A   2      34.444   5.319  11.519  0.00  0.00    +0.000 OA
ATOM    123  HG1 LEU A   2      35.352   5.560  11.831  0.00  0.00    +0.000 HD
ENDBRANCH 120 122
ENDBRANCH 111 120
ENDBRANCH 107 111
ENDBRANCH 106 109
BRANCH 106 124
ATOM    124  C   UNK A   3      31.908   2.805  14.649  0.00  0.00    +0.000 C 
BRANCH 124 125
ATOM    125  C   UNK A   3      30.863   3.218  13.659  0.00  0.00    +0.000 C 
BRANCH 125 126
ATOM    126  C   UNK A   3      29.746   4.002  14.247  0.00  0.00    +0.000 C 
ATOM    127  O   UNK A   3      28.789   3.483  14.726  0.00  0.00    +0.000 OA
ATOM    128  N   UNK A   3      29.947   5.308  14.290  0.00  0.00    +0.000 N 
ATOM    129  H   UNK A   3      29.253   5.926  14.757  0.00  0.00    +0.000 HD
ATOM    130  H   UNK A   3      30.799   5.717  13.857  0.00  0.00    +0.000 HD
ENDBRANCH 125 126
ENDBRANCH 124 125
ENDBRANCH 106 124
ENDBRANCH 102 106
ENDBRANCH 101 103
BRANCH 101 131
ATOM    131  CB  ILE A   4      30.676  -2.559  15.096  0.00  0.00    +0.000 C 
BRANCH 131 132
ATOM    132  CG  ILE A   4      31.393  -3.021  16.394  0.00  0.00    +0.000 C 
ATOM    133  CD2 ILE A   4      30.518  -3.124  17.649  0.00  0.00    +0.000 C 
ATOM    134  CD1 ILE A   4      32.087  -4.370  16.066  0.00  0.00    +0.000 C 
ENDBRANCH 131 132
ENDBRANCH 101 131
ENDBRANCH  97 101
ENDBRANCH   1  99
BRANCH   9 135
ATOM    135  C   UNK A   7      19.057  -3.064  17.828  0.00  0.00    +0.000 C 
ATOM    136  N   TRP A   8      18.077  -2.686  18.691  0.00  0.00    +0.000 N 
ATOM    137  H   TRP A   8      17.855  -1.681  18.842  0.00  0.00    +0.000 HD
ATOM    138  O   UNK A   7      19.283  -4.270  17.569  0.00  0.00    +0.000 OA
BRANCH 136 139
ATOM    139  CA  TRP A   8      17.330  -3.753  19.415  0.00  0.00    +0.000 C 
BRANCH 139 140
ATOM    140  C   TRP A   8      15.942  -3.273  19.753  0.00  0.00    +0.000 C 
ATOM    141  O   TRP A   8      15.659  -2.074  19.562  0.00  0.00    +0.000 OA
ENDBRANCH 139 140
BRANCH 139 142
ATOM    142  CB  TRP A   8      18.069  -4.218  20.755  0.00  0.00    +0.000 C 
BRANCH 142 143
ATOM    143  CG  TRP A   8      18.390  -3.104  21.680  0.00  0.00    +0.000 A 
ATOM    144  CD1 TRP A   8      17.574  -2.613  22.693  0.00  0.00    +0.000 A 
ATOM    145  NE1 TRP A   8      18.190  -1.556  23.327  0.00  0.00    +0.000 N 
ATOM    146  HE1 TRP A   8      17.760  -0.981  24.079  0.00  0.00    +0.000 HD
ATOM    147  CE2 TRP A   8      19.449  -1.373  22.823  0.00  0.00    +0.000 A 
ATOM    148  CZ2 TRP A   8      20.364  -0.386  23.073  0.00  0.00    +0.000 A 
ATOM    149  CH2 TRP A   8      21.580  -0.384  22.330  0.00  0.00    +0.000 A 
ATOM    150  CZ3 TRP A   8      21.750  -1.293  21.226  0.00  0.00    +0.000 A 
ATOM    151  CE3 TRP A   8      20.813  -2.269  20.968  0.00  0.00    +0.000 A 
ATOM    152  CD2 TRP A   8      19.585  -2.284  21.698  0.00  0.00    +0.000 A 
ENDBRANCH 142 143
ENDBRANCH 139 142
ENDBRANCH 136 139
ENDBRANCH   9 135
BRANCH   5 153
ATOM    153  CB  HIS A   6      23.698  -3.325  18.769  0.00  0.00    +0.000 C 
BRANCH 153 154
ATOM    154  CG  HIS A   6      24.933  -4.309  18.736  0.00  0.00    +0.000 C 
ATOM    155  CD2 HIS A   6      25.878  -3.803  19.790  0.00  0.00    +0.000 C 
ATOM    156  CD1 HIS A   6      24.441  -5.695  19.042  0.00  0.00    +0.000 C 
ENDBRANCH 153 154
ENDBRANCH   5 153
TORSDOF 53
REMARK  Name = ../refined-set-2016/4qj0/4qj0_pocket.pdb
REMARK  220 active torsions:
REMARK  status: ('A' for Active; 'I' for Inactive)
REMARK    1  A    between atoms: _1  and  _5
REMARK    2  A    between atoms: _5  and  _6
REMARK    3  A    between atoms: _5  and  _8
REMARK    4  A    between atoms: _8  and  _9
REMARK    5  A    between atoms: _9  and  _10
REMARK    6  A    between atoms: _10  and  _11
REMARK    7  A    between atoms: _11  and  _12
REMARK    8  A    between atoms: _16  and  _18
REMARK    9  A    between atoms: _18  and  _19
REMARK   10  A    between atoms: _18  and  _21
REMARK   11  A    between atoms: _21  and  _22
REMARK   12  A    between atoms: _32  and  _34
REMARK   13  A    between atoms: _34  and  _35
REMARK   14  A    between atoms: _34  and  _37
REMARK   15  A    between atoms: _37  and  _38
REMARK   16  A    between atoms: _43  and  _44
REMARK   17  A    between atoms: _46  and  _48
REMARK   18  A    between atoms: _48  and  _49
REMARK   19  A    between atoms: _48  and  _51
REMARK   20  A    between atoms: _51  and  _52
REMARK   21  A    between atoms: _57  and  _58
REMARK   22  A    between atoms: _60  and  _62
REMARK   23  A    between atoms: _62  and  _63
REMARK   24  A    between atoms: _62  and  _65
REMARK   25  A    between atoms: _65  and  _66
REMARK   26  A    between atoms: _69  and  _70
REMARK   27  A    between atoms: _75  and  _77
REMARK   28  A    between atoms: _77  and  _78
REMARK   29  A    between atoms: _77  and  _80
REMARK   30  A    between atoms: _80  and  _81
REMARK   31  A    between atoms: _84  and  _86
REMARK   32  A    between atoms: _86  and  _87
REMARK   33  A    between atoms: _86  and  _89
REMARK   34  A    between atoms: _89  and  _90
REMARK   35  A    between atoms: _95  and  _97
REMARK   36  A    between atoms: _97  and  _98
REMARK   37  A    between atoms: _100  and  _102
REMARK   38  A    between atoms: _102  and  _103
REMARK   39  A    between atoms: _102  and  _105
REMARK   40  A    between atoms: _105  and  _106
REMARK   41  A    between atoms: _111  and  _113
REMARK   42  A    between atoms: _113  and  _114
REMARK   43  A    between atoms: _113  and  _116
REMARK   44  A    between atoms: _116  and  _117
REMARK   45  A    between atoms: _119  and  _121
REMARK   46  A    between atoms: _121  and  _122
REMARK   47  A    between atoms: _121  and  _124
REMARK   48  A    between atoms: _127  and  _129
REMARK   49  A    between atoms: _129  and  _130
REMARK   50  A    between atoms: _129  and  _132
REMARK   51  A    between atoms: _132  and  _133
REMARK   52  A    between atoms: _133  and  _134
REMARK   53  A    between atoms: _134  and  _135
REMARK   54  A    between atoms: _135  and  _136
REMARK   55  A    between atoms: _140  and  _142
REMARK   56  A    between atoms: _142  and  _143
REMARK   57  A    between atoms: _142  and  _145
REMARK   58  A    between atoms: _145  and  _146
REMARK   59  A    between atoms: _149  and  _151
REMARK   60  A    between atoms: _151  and  _152
REMARK   61  A    between atoms: _151  and  _154
REMARK   62  A    between atoms: _154  and  _155
REMARK   63  A    between atoms: _160  and  _162
REMARK   64  A    between atoms: _162  and  _163
REMARK   65  A    between atoms: _166  and  _168
REMARK   66  A    between atoms: _168  and  _169
REMARK   67  A    between atoms: _168  and  _171
REMARK   68  A    between atoms: _171  and  _172
REMARK   69  A    between atoms: _175  and  _177
REMARK   70  A    between atoms: _177  and  _178
REMARK   71  A    between atoms: _177  and  _180
REMARK   72  A    between atoms: _180  and  _181
REMARK   73  A    between atoms: _181  and  _182
REMARK   74  A    between atoms: _187  and  _189
REMARK   75  A    between atoms: _189  and  _190
REMARK   76  A    between atoms: _189  and  _192
REMARK   77  A    between atoms: _192  and  _193
REMARK   78  A    between atoms: _196  and  _198
REMARK   79  A    between atoms: _209  and  _212
REMARK   80  A    between atoms: _212  and  _213
REMARK   81  A    between atoms: _218  and  _219
REMARK   82  A    between atoms: _227  and  _229
REMARK   83  A    between atoms: _229  and  _230
REMARK   84  A    between atoms: _229  and  _232
REMARK   85  A    between atoms: _232  and  _233
REMARK   86  A    between atoms: _243  and  _245
REMARK   87  A    between atoms: _245  and  _246
REMARK   88  A    between atoms: _245  and  _248
REMARK   89  A    between atoms: _248  and  _249
REMARK   90  A    between atoms: _249  and  _250
REMARK   91  A    between atoms: _253  and  _255
REMARK   92  A    between atoms: _255  and  _256
REMARK   93  A    between atoms: _255  and  _258
REMARK   94  A    between atoms: _258  and  _259
REMARK   95  A    between atoms: _264  and  _266
REMARK   96  A    between atoms: _266  and  _267
REMARK   97  A    between atoms: _266  and  _269
REMARK   98  A    between atoms: _269  and  _270
REMARK   99  A    between atoms: _270  and  _271
REMARK  100  A    between atoms: _274  and  _276
REMARK  101  A    between atoms: _276  and  _277
REMARK  102  A    between atoms: _276  and  _279
REMARK  103  A    between atoms: _279  and  _280
REMARK  104  A    between atoms: _283  and  _285
REMARK  105  A    between atoms: _285  and  _286
REMARK  106  A    between atoms: _285  and  _288
REMARK  107  A    between atoms: _288  and  _289
REMARK  108  A    between atoms: _290  and  ZN_582
REMARK  109  A    between atoms: _294  and  _296
REMARK  110  A    between atoms: _296  and  _297
REMARK  111  A    between atoms: _296  and  _299
REMARK  112  A    between atoms: _299  and  _300
REMARK  113  A    between atoms: _303  and  _305
REMARK  114  A    between atoms: _305  and  _306
REMARK  115  A    between atoms: _305  and  _308
REMARK  116  A    between atoms: _311  and  _313
REMARK  117  A    between atoms: _313  and  _314
REMARK  118  A    between atoms: _313  and  _316
REMARK  119  A    between atoms: _316  and  _317
REMARK  120  A    between atoms: _322  and  _324
REMARK  121  A    between atoms: _324  and  _325
REMARK  122  A    between atoms: _324  and  _327
REMARK  123  A    between atoms: _327  and  _328
REMARK  124  A    between atoms: _333  and  _334
REMARK  125  A    between atoms: _336  and  _338
REMARK  126  A    between atoms: _338  and  _339
REMARK  127  A    between atoms: _338  and  _341
REMARK  128  A    between atoms: _341  and  _342
REMARK  129  A    between atoms: _345  and  _347
REMARK  130  A    between atoms: _347  and  _348
REMARK  131  A    between atoms: _351  and  _353
REMARK  132  A    between atoms: _353  and  _354
REMARK  133  A    between atoms: _353  and  _356
REMARK  134  A    between atoms: _356  and  _357
REMARK  135  A    between atoms: _359  and  _361
REMARK  136  A    between atoms: _361  and  _362
REMARK  137  A    between atoms: _361  and  _364
REMARK  138  A    between atoms: _364  and  _365
REMARK  139  A    between atoms: _368  and  _370
REMARK  140  A    between atoms: _370  and  _371
REMARK  141  A    between atoms: _374  and  _376
REMARK  142  A    between atoms: _376  and  _377
REMARK  143  A    between atoms: _376  and  _379
REMARK  144  A    between atoms: _379  and  _380
REMARK  145  A    between atoms: _382  and  _384
REMARK  146  A    between atoms: _384  and  _385
REMARK  147  A    between atoms: _384  and  _387
REMARK  148  A    between atoms: _387  and  _388
REMARK  149  A    between atoms: _393  and  _395
REMARK  150  A    between atoms: _395  and  _396
REMARK  151  A    between atoms: _398  and  _400
REMARK  152  A    between atoms: _400  and  _401
REMARK  153  A    between atoms: _400  and  _403
REMARK  154  A    between atoms: _403  and  _404
REMARK  155  A    between atoms: _407  and  _409
REMARK  156  A    between atoms: _409  and  _410
REMARK  157  A    between atoms: _413  and  _415
REMARK  158  A    between atoms: _415  and  _416
REMARK  159  A    between atoms: _415  and  _418
REMARK  160  A    between atoms: _421  and  _423
REMARK  161  A    between atoms: _423  and  _424
REMARK  162  A    between atoms: _423  and  _426
REMARK  163  A    between atoms: _426  and  _427
REMARK  164  A    between atoms: _430  and  _432
REMARK  165  A    between atoms: _432  and  _433
REMARK  166  A    between atoms: _436  and  _438
REMARK  167  A    between atoms: _438  and  _439
REMARK  168  A    between atoms: _438  and  _441
REMARK  169  A    between atoms: _441  and  _442
REMARK  170  A    between atoms: _444  and  _446
REMARK  171  A    between atoms: _446  and  _447
REMARK  172  A    between atoms: _446  and  _449
REMARK  173  A    between atoms: _449  and  _450
REMARK  174  A    between atoms: _453  and  _455
REMARK  175  A    between atoms: _455  and  _456
REMARK  176  A    between atoms: _455  and  _458
REMARK  177  A    between atoms: _458  and  _459
REMARK  178  A    between atoms: _462  and  _464
REMARK  179  A    between atoms: _464  and  _465
REMARK  180  A    between atoms: _464  and  _467
REMARK  181  A    between atoms: _467  and  _468
REMARK  182  A    between atoms: _472  and  _473
REMARK  183  A    between atoms: _479  and  _480
REMARK  184  A    between atoms: _485  and  _487
REMARK  185  A    between atoms: _487  and  _488
REMARK  186  A    between atoms: _487  and  _490
REMARK  187  A    between atoms: _492  and  _494
REMARK  188  A    between atoms: _494  and  _495
REMARK  189  A    between atoms: _494  and  _497
REMARK  190  A    between atoms: _497  and  _498
REMARK  191  A    between atoms: _503  and  _505
REMARK  192  A    between atoms: _505  and  _506
REMARK  193  A    between atoms: _505  and  _508
REMARK  194  A    between atoms: _508  and  _509
REMARK  195  A    between atoms: _512  and  _514
REMARK  196  A    between atoms: _514  and  _515
REMARK  197  A    between atoms: _514  and  _517
REMARK  198  A    between atoms: _520  and  _522
REMARK  199  A    between atoms: _522  and  _523
REMARK  200  A    between atoms: _522  and  _525
REMARK  201  A    between atoms: _525  and  _526
REMARK  202  A    between atoms: _529  and  _531
REMARK  203  A    between atoms: _531  and  _532
REMARK  204  A    between atoms: _531  and  _534
REMARK  205  A    between atoms: _534  and  _535
REMARK  206  A    between atoms: _545  and  _547
REMARK  207  A    between atoms: _547  and  _548
REMARK  208  A    between atoms: _547  and  _550
REMARK  209  A    between atoms: _550  and  _551
REMARK  210  A    between atoms: _551  and  _552
REMARK  211  A    between atoms: _554  and  _556
REMARK  212  A    between atoms: _556  and  _557
REMARK  213  A    between atoms: _556  and  _559
REMARK  214  A    between atoms: _559  and  _560
REMARK  215  A    between atoms: _565  and  _567
REMARK  216  A    between atoms: _567  and  _568
REMARK  217  A    between atoms: _567  and  _570
REMARK  218  A    between atoms: _570  and  _571
REMARK  219  A    between atoms: _571  and  _572
REMARK  220  A    between atoms: _572  and  _573
REMARK                            x       y       z     vdW  Elec       q    Type
REMARK                         _______ _______ _______ _____ _____    ______ ____
ROOT
ATOM      1  C   GLU A   1      15.700  -3.939  10.074  0.00  0.00    +0.238 C 
ATOM      2  O   GLU A   1      14.572  -3.743   9.625  0.00  0.00    -0.274 OA
ATOM      3  N   HIS A   2      16.571  -4.765   9.488  0.00  0.00    -0.298 N 
ATOM      4  H   HIS A   2      17.564  -4.809   9.793  0.00  0.00    +0.150 HD
ENDROOT
BRANCH   1   5
ATOM      5  CA  GLU A   1      16.229  -3.258  11.335  0.00  0.00    +0.145 C 
BRANCH   5   6
ATOM      6  N   GLU A   1      16.665  -4.284  12.337  0.00  0.00    -0.238 NA
ATOM      7  H   GLU A   1      17.659  -4.589  12.366  0.00  0.00    +0.142 HD
ENDBRANCH   5   6
BRANCH   5   8
ATOM      8  CB  GLU A   1      17.462  -2.380  10.928  0.00  0.00    +0.038 C 
BRANCH   8   9
ATOM      9  CG  GLU A   1      17.983  -1.659  12.218  0.00  0.00    +0.116 C 
BRANCH   9  10
ATOM     10  CD  GLU A   1      18.353  -0.210  11.923  0.00  0.00    +0.365 C 
ATOM     11  OE2 GLU A   1      17.498   0.724  12.166  0.00  0.00    -0.246 OA
ATOM     12  OE1 GLU A   1      19.369   0.041  11.356  0.00  0.00    -0.246 OA
ENDBRANCH   9  10
ENDBRANCH   8   9
ENDBRANCH   5   8
ENDBRANCH   1   5
BRANCH   3  13
ATOM     13  CA  HIS A   2      16.071  -5.608   8.397  0.00  0.00    +0.143 C 
BRANCH  13  14
ATOM     14  C   HIS A   2      15.188  -6.657   8.937  0.00  0.00    +0.227 C 
ATOM     15  O   HIS A   2      15.389  -7.207  10.030  0.00  0.00    -0.286 OA
ENDBRANCH  13  14
BRANCH  13  16
ATOM     16  CB  HIS A   2      17.245  -6.235   7.596  0.00  0.00    +0.075 C 
BRANCH  16  17
ATOM     17  CG  HIS A   2      18.033  -5.176   6.887  0.00  0.00    +0.082 A 
ATOM     18  ND1 HIS A   2      19.091  -4.527   7.474  0.00  0.00    -0.227 NA
ATOM     19  CE1 HIS A   2      19.556  -3.624   6.620  0.00  0.00    +0.199 A 
ATOM     20  NE2 HIS A   2      18.819  -3.691   5.502  0.00  0.00    -0.221 NA
ATOM     21  CD2 HIS A   2      17.853  -4.618   5.650  0.00  0.00    +0.115 A 
ENDBRANCH  16  17
ENDBRANCH  13  16
ENDBRANCH   3  13
TORSDOF 9
REMARK  Name = ../refined-set-2016/4qj0/4qj0_pocket.pdb
REMARK  220 active torsions:
REMARK  status: ('A' for Active; 'I' for Inactive)
REMARK    1  A    between atoms: _1  and  _5
REMARK    2  A    between atoms: _5  and  _6
REMARK    3  A    between atoms: _5  and  _8
REMARK    4  A    between atoms: _8  and  _9
REMARK    5  A    between atoms: _9  and  _10
REMARK    6  A    between atoms: _10  and  _11
REMARK    7  A    between atoms: _11  and  _12
REMARK    8  A    between atoms: _16  and  _18
REMARK    9  A    between atoms: _18  and  _19
REMARK   10  A    between atoms: _18  and  _21
REMARK   11  A    between atoms: _21  and  _22
REMARK   12  A    between atoms: _32  and  _34
REMARK   13  A    between atoms: _34  and  _35
REMARK   14  A    between atoms: _34  and  _37
REMARK   15  A    between atoms: _37  and  _38
REMARK   16  A    between atoms: _43  and  _44
REMARK   17  A    between atoms: _46  and  _48
REMARK   18  A    between atoms: _48  and  _49
REMARK   19  A    between atoms: _48  and  _51
REMARK   20  A    between atoms: _51  and  _52
REMARK   21  A    between atoms: _57  and  _58
REMARK   22  A    between atoms: _60  and  _62
REMARK   23  A    between atoms: _62  and  _63
REMARK   24  A    between atoms: _62  and  _65
REMARK   25  A    between atoms: _65  and  _66
REMARK   26  A    between atoms: _69  and  _70
REMARK   27  A    between atoms: _75  and  _77
REMARK   28  A    between atoms: _77  and  _78
REMARK   29  A    between atoms: _77  and  _80
REMARK   30  A    between atoms: _80  and  _81
REMARK   31  A    between atoms: _84  and  _86
REMARK   32  A    between atoms: _86  and  _87
REMARK   33  A    between atoms: _86  and  _89
REMARK   34  A    between atoms: _89  and  _90
REMARK   35  A    between atoms: _95  and  _97
REMARK   36  A    between atoms: _97  and  _98
REMARK   37  A    between atoms: _100  and  _102
REMARK   38  A    between atoms: _102  and  _103
REMARK   39  A    between atoms: _102  and  _105
REMARK   40  A    between atoms: _105  and  _106
REMARK   41  A    between atoms: _111  and  _113
REMARK   42  A    between atoms: _113  and  _114
REMARK   43  A    between atoms: _113  and  _116
REMARK   44  A    between atoms: _116  and  _117
REMARK   45  A    between atoms: _119  and  _121
REMARK   46  A    between atoms: _121  and  _122
REMARK   47  A    between atoms: _121  and  _124
REMARK   48  A    between atoms: _127  and  _129
REMARK   49  A    between atoms: _129  and  _130
REMARK   50  A    between atoms: _129  and  _132
REMARK   51  A    between atoms: _132  and  _133
REMARK   52  A    between atoms: _133  and  _134
REMARK   53  A    between atoms: _134  and  _135
REMARK   54  A    between atoms: _135  and  _136
REMARK   55  A    between atoms: _140  and  _142
REMARK   56  A    between atoms: _142  and  _143
REMARK   57  A    between atoms: _142  and  _145
REMARK   58  A    between atoms: _145  and  _146
REMARK   59  A    between atoms: _149  and  _151
REMARK   60  A    between atoms: _151  and  _152
REMARK   61  A    between atoms: _151  and  _154
REMARK   62  A    between atoms: _154  and  _155
REMARK   63  A    between atoms: _160  and  _162
REMARK   64  A    between atoms: _162  and  _163
REMARK   65  A    between atoms: _166  and  _168
REMARK   66  A    between atoms: _168  and  _169
REMARK   67  A    between atoms: _168  and  _171
REMARK   68  A    between atoms: _171  and  _172
REMARK   69  A    between atoms: _175  and  _177
REMARK   70  A    between atoms: _177  and  _178
REMARK   71  A    between atoms: _177  and  _180
REMARK   72  A    between atoms: _180  and  _181
REMARK   73  A    between atoms: _181  and  _182
REMARK   74  A    between atoms: _187  and  _189
REMARK   75  A    between atoms: _189  and  _190
REMARK   76  A    between atoms: _189  and  _192
REMARK   77  A    between atoms: _192  and  _193
REMARK   78  A    between atoms: _196  and  _198
REMARK   79  A    between atoms: _209  and  _212
REMARK   80  A    between atoms: _212  and  _213
REMARK   81  A    between atoms: _218  and  _219
REMARK   82  A    between atoms: _227  and  _229
REMARK   83  A    between atoms: _229  and  _230
REMARK   84  A    between atoms: _229  and  _232
REMARK   85  A    between atoms: _232  and  _233
REMARK   86  A    between atoms: _243  and  _245
REMARK   87  A    between atoms: _245  and  _246
REMARK   88  A    between atoms: _245  and  _248
REMARK   89  A    between atoms: _248  and  _249
REMARK   90  A    between atoms: _249  and  _250
REMARK   91  A    between atoms: _253  and  _255
REMARK   92  A    between atoms: _255  and  _256
REMARK   93  A    between atoms: _255  and  _258
REMARK   94  A    between atoms: _258  and  _259
REMARK   95  A    between atoms: _264  and  _266
REMARK   96  A    between atoms: _266  and  _267
REMARK   97  A    between atoms: _266  and  _269
REMARK   98  A    between atoms: _269  and  _270
REMARK   99  A    between atoms: _270  and  _271
REMARK  100  A    between atoms: _274  and  _276
REMARK  101  A    between atoms: _276  and  _277
REMARK  102  A    between atoms: _276  and  _279
REMARK  103  A    between atoms: _279  and  _280
REMARK  104  A    between atoms: _283  and  _285
REMARK  105  A    between atoms: _285  and  _286
REMARK  106  A    between atoms: _285  and  _288
REMARK  107  A    between atoms: _288  and  _289
REMARK  108  A    between atoms: _290  and  ZN_582
REMARK  109  A    between atoms: _294  and  _296
REMARK  110  A    between atoms: _296  and  _297
REMARK  111  A    between atoms: _296  and  _299
REMARK  112  A    between atoms: _299  and  _300
REMARK  113  A    between atoms: _303  and  _305
REMARK  114  A    between atoms: _305  and  _306
REMARK  115  A    between atoms: _305  and  _308
REMARK  116  A    between atoms: _311  and  _313
REMARK  117  A    between atoms: _313  and  _314
REMARK  118  A    between atoms: _313  and  _316
REMARK  119  A    between atoms: _316  and  _317
REMARK  120  A    between atoms: _322  and  _324
REMARK  121  A    between atoms: _324  and  _325
REMARK  122  A    between atoms: _324  and  _327
REMARK  123  A    between atoms: _327  and  _328
REMARK  124  A    between atoms: _333  and  _334
REMARK  125  A    between atoms: _336  and  _338
REMARK  126  A    between atoms: _338  and  _339
REMARK  127  A    between atoms: _338  and  _341
REMARK  128  A    between atoms: _341  and  _342
REMARK  129  A    between atoms: _345  and  _347
REMARK  130  A    between atoms: _347  and  _348
REMARK  131  A    between atoms: _351  and  _353
REMARK  132  A    between atoms: _353  and  _354
REMARK  133  A    between atoms: _353  and  _356
REMARK  134  A    between atoms: _356  and  _357
REMARK  135  A    between atoms: _359  and  _361
REMARK  136  A    between atoms: _361  and  _362
REMARK  137  A    between atoms: _361  and  _364
REMARK  138  A    between atoms: _364  and  _365
REMARK  139  A    between atoms: _368  and  _370
REMARK  140  A    between atoms: _370  and  _371
REMARK  141  A    between atoms: _374  and  _376
REMARK  142  A    between atoms: _376  and  _377
REMARK  143  A    between atoms: _376  and  _379
REMARK  144  A    between atoms: _379  and  _380
REMARK  145  A    between atoms: _382  and  _384
REMARK  146  A    between atoms: _384  and  _385
REMARK  147  A    between atoms: _384  and  _387
REMARK  148  A    between atoms: _387  and  _388
REMARK  149  A    between atoms: _393  and  _395
REMARK  150  A    between atoms: _395  and  _396
REMARK  151  A    between atoms: _398  and  _400
REMARK  152  A    between atoms: _400  and  _401
REMARK  153  A    between atoms: _400  and  _403
REMARK  154  A    between atoms: _403  and  _404
REMARK  155  A    between atoms: _407  and  _409
REMARK  156  A    between atoms: _409  and  _410
REMARK  157  A    between atoms: _413  and  _415
REMARK  158  A    between atoms: _415  and  _416
REMARK  159  A    between atoms: _415  and  _418
REMARK  160  A    between atoms: _421  and  _423
REMARK  161  A    between atoms: _423  and  _424
REMARK  162  A    between atoms: _423  and  _426
REMARK  163  A    between atoms: _426  and  _427
REMARK  164  A    between atoms: _430  and  _432
REMARK  165  A    between atoms: _432  and  _433
REMARK  166  A    between atoms: _436  and  _438
REMARK  167  A    between atoms: _438  and  _439
REMARK  168  A    between atoms: _438  and  _441
REMARK  169  A    between atoms: _441  and  _442
REMARK  170  A    between atoms: _444  and  _446
REMARK  171  A    between atoms: _446  and  _447
REMARK  172  A    between atoms: _446  and  _449
REMARK  173  A    between atoms: _449  and  _450
REMARK  174  A    between atoms: _453  and  _455
REMARK  175  A    between atoms: _455  and  _456
REMARK  176  A    between atoms: _455  and  _458
REMARK  177  A    between atoms: _458  and  _459
REMARK  178  A    between atoms: _462  and  _464
REMARK  179  A    between atoms: _464  and  _465
REMARK  180  A    between atoms: _464  and  _467
REMARK  181  A    between atoms: _467  and  _468
REMARK  182  A    between atoms: _472  and  _473
REMARK  183  A    between atoms: _479  and  _480
REMARK  184  A    between atoms: _485  and  _487
REMARK  185  A    between atoms: _487  and  _488
REMARK  186  A    between atoms: _487  and  _490
REMARK  187  A    between atoms: _492  and  _494
REMARK  188  A    between atoms: _494  and  _495
REMARK  189  A    between atoms: _494  and  _497
REMARK  190  A    between atoms: _497  and  _498
REMARK  191  A    between atoms: _503  and  _505
REMARK  192  A    between atoms: _505  and  _506
REMARK  193  A    between atoms: _505  and  _508
REMARK  194  A    between atoms: _508  and  _509
REMARK  195  A    between atoms: _512  and  _514
REMARK  196  A    between atoms: _514  and  _515
REMARK  197  A    between atoms: _514  and  _517
REMARK  198  A    between atoms: _520  and  _522
REMARK  199  A    between atoms: _522  and  _523
REMARK  200  A    between atoms: _522  and  _525
REMARK  201  A    between atoms: _525  and  _526
REMARK  202  A    between atoms: _529  and  _531
REMARK  203  A    between atoms: _531  and  _532
REMARK  204  A    between atoms: _531  and  _534
REMARK  205  A    between atoms: _534  and  _535
REMARK  206  A    between atoms: _545  and  _547
REMARK  207  A    between atoms: _547  and  _548
REMARK  208  A    between atoms: _547  and  _550
REMARK  209  A    between atoms: _550  and  _551
REMARK  210  A    between atoms: _551  and  _552
REMARK  211  A    between atoms: _554  and  _556
REMARK  212  A    between atoms: _556  and  _557
REMARK  213  A    between atoms: _556  and  _559
REMARK  214  A    between atoms: _559  and  _560
REMARK  215  A    between atoms: _565  and  _567
REMARK  216  A    between atoms: _567  and  _568
REMARK  217  A    between atoms: _567  and  _570
REMARK  218  A    between atoms: _570  and  _571
REMARK  219  A    between atoms: _571  and  _572
REMARK  220  A    between atoms: _572  and  _573
REMARK                            x       y       z     vdW  Elec       q    Type
REMARK                         _______ _______ _______ _____ _____    ______ ____
ROOT
ATOM      1  CA  THR A   4      33.754  12.738   4.571  0.00  0.00    +0.176 C 
ENDROOT
BRANCH   1   4
ATOM      2  C   SER A   3      32.567  12.073   6.555  0.00  0.00    +0.243 C 
ATOM      3  O   SER A   3      31.489  12.397   6.041  0.00  0.00    -0.273 OA
ATOM      4  N   THR A   4      33.708  12.187   5.887  0.00  0.00    -0.295 N 
ATOM      5  H   THR A   4      34.591  11.867   6.334  0.00  0.00    +0.150 HD
BRANCH   2   6
ATOM      6  CA  SER A   3      32.634  11.517   7.958  0.00  0.00    +0.178 C 
BRANCH   6   8
ATOM      7  C   ALA A   2      33.133   9.266   7.183  0.00  0.00    +0.241 C 
ATOM      8  N   SER A   3      33.438  10.289   7.977  0.00  0.00    -0.295 N 
ATOM      9  H   SER A   3      34.254  10.218   8.618  0.00  0.00    +0.150 HD
ATOM     10  O   ALA A   2      32.142   9.224   6.451  0.00  0.00    -0.273 OA
BRANCH   7  11
ATOM     11  CA  ALA A   2      34.054   8.085   7.211  0.00  0.00    +0.149 C 
ATOM     12  CB  ALA A   2      33.660   7.152   8.353  0.00  0.00    +0.031 C 
BRANCH  11  14
ATOM     13  C   ASP A   1      36.058   9.112   6.369  0.00  0.00    +0.239 C 
ATOM     14  N   ALA A   2      35.399   8.521   7.346  0.00  0.00    -0.297 N 
ATOM     15  H   ALA A   2      35.884   8.368   8.253  0.00  0.00    +0.150 HD
ATOM     16  O   ASP A   1      35.566   9.433   5.277  0.00  0.00    -0.274 OA
BRANCH  13  17
ATOM     17  CA  ASP A   1      37.571   9.309   6.635  0.00  0.00    +0.156 C 
BRANCH  17  18
ATOM     18  N   ASP A   1      38.182   9.826   5.422  0.00  0.00    -0.238 NA
ATOM     19  H   ASP A   1      37.572  10.245   4.691  0.00  0.00    +0.142 HD
ENDBRANCH  17  18
BRANCH  17  20
ATOM     20  CB  ASP A   1      37.826  10.185   7.864  0.00  0.00    +0.140 C 
BRANCH  20  21
ATOM     21  CG  ASP A   1      37.408  11.613   7.665  0.00  0.00    +0.367 C 
ATOM     22  OD2 ASP A   1      37.925  12.446   8.469  0.00  0.00    -0.246 OA
ATOM     23  OD1 ASP A   1      36.559  11.947   6.784  0.00  0.00    -0.246 OA
ENDBRANCH  20  21
ENDBRANCH  17  20
ENDBRANCH  13  17
ENDBRANCH  11  14
ENDBRANCH   7  11
ENDBRANCH   6   8
BRANCH   6  24
ATOM     24  CB  SER A   3      33.248  12.539   8.921  0.00  0.00    +0.166 C 
BRANCH  24  25
ATOM     25  OG  SER A   3      32.651  13.810   8.722  0.00  0.00    -0.380 OA
ATOM     26  H   SER A   3      33.053  14.464   9.347  0.00  0.00    +0.211 HD
ENDBRANCH  24  25
ENDBRANCH   6  24
ENDBRANCH   2   6
ENDBRANCH   1   4
BRANCH   1  27
ATOM     27  C   THR A   4      33.070  11.798   3.555  0.00  0.00    +0.243 C 
ATOM     28  N   ALA A   5      33.280  10.474   3.698  0.00  0.00    -0.297 N 
ATOM     29  H   ALA A   5      33.905  10.114   4.448  0.00  0.00    +0.150 HD
ATOM     30  O   THR A   4      32.395  12.256   2.591  0.00  0.00    -0.273 OA
BRANCH  28  31
ATOM     31  CA  ALA A   5      32.600   9.536   2.761  0.00  0.00    +0.149 C 
ATOM     32  CB  ALA A   5      33.132   8.086   2.953  0.00  0.00    +0.031 C 
BRANCH  31  33
ATOM     33  C   ALA A   5      31.066   9.460   2.861  0.00  0.00    +0.241 C 
ATOM     34  N   SER A   6      30.517   9.829   3.999  0.00  0.00    -0.295 N 
ATOM     35  H   SER A   6      31.073  10.410   4.659  0.00  0.00    +0.150 HD
ATOM     36  O   ALA A   5      30.456   9.066   1.898  0.00  0.00    -0.273 OA
BRANCH  34  37
ATOM     37  CA  SER A   6      29.170   9.457   4.365  0.00  0.00    +0.178 C 
BRANCH  37  38
ATOM     38  C   SER A   6      28.099   9.994   3.388  0.00  0.00    +0.243 C 
ATOM     39  O   SER A   6      27.040   9.350   3.256  0.00  0.00    -0.273 OA
ATOM     40  N   ASN A   7      28.394  11.097   2.667  0.00  0.00    -0.298 N 
ATOM     41  H   ASN A   7      29.314  11.553   2.832  0.00  0.00    +0.150 HD
BRANCH  40  42
ATOM     42  CA  ASN A   7      27.494  11.701   1.657  0.00  0.00    +0.146 C 
BRANCH  42  43
ATOM     43  C   ASN A   7      27.983  11.676   0.197  0.00  0.00    +0.227 C 
ATOM     44  O   ASN A   7      27.452  12.349  -0.680  0.00  0.00    -0.286 OA
ENDBRANCH  42  43
BRANCH  42  45
ATOM     45  CB  ASN A   7      27.083  13.132   2.088  0.00  0.00    +0.112 C 
BRANCH  45  46
ATOM     46  CG  ASN A   7      28.246  14.103   2.037  0.00  0.00    +0.222 C 
ATOM     47  OD1 ASN A   7      29.410  13.682   2.100  0.00  0.00    -0.275 OA
ATOM     48  ND2 ASN A   7      27.939  15.418   1.842  0.00  0.00    -0.329 N 
ATOM     49 HD21 ASN A   7      26.944  15.719   1.797  0.00  0.00    +0.145 HD
ATOM     50 HD22 ASN A   7      28.700  16.120   1.738  0.00  0.00    +0.145 HD
ENDBRANCH  45  46
ENDBRANCH  42  45
ENDBRANCH  40  42
ENDBRANCH  37  38
BRANCH  37  51
ATOM     51  CB  SER A   6      28.915   9.882   5.804  0.00  0.00    +0.166 C 
BRANCH  51  52
ATOM     52  OG  SER A   6      28.930  11.305   5.865  0.00  0.00    -0.380 OA
ATOM     53  H   SER A   6      29.813  11.638   5.565  0.00  0.00    +0.211 HD
ENDBRANCH  51  52
ENDBRANCH  37  51
ENDBRANCH  34  37
ENDBRANCH  31  33
ENDBRANCH  28  31
ENDBRANCH   1  27
BRANCH   1  54
ATOM     54  CB  THR A   4      35.224  12.997   4.172  0.00  0.00    +0.137 C 
ATOM     55  CG2 THR A   4      35.347  13.531   2.795  0.00  0.00    +0.034 C 
BRANCH  54  56
ATOM     56  OG1 THR A   4      35.793  13.914   5.143  0.00  0.00    -0.382 OA
ATOM     57  HG1 THR A   4      35.748  13.508   6.045  0.00  0.00    +0.210 HD
ENDBRANCH  54  56
ENDBRANCH   1  54
TORSDOF 24
REMARK  Name = ../refined-set-2016/4qj0/4qj0_pocket.pdb
REMARK  220 active torsions:
REMARK  status: ('A' for Active; 'I' for Inactive)
REMARK    1  A    between atoms: _1  and  _5
REMARK    2  A    between atoms: _5  and  _6
REMARK    3  A    between atoms: _5  and  _8
REMARK    4  A    between atoms: _8  and  _9
REMARK    5  A    between atoms: _9  and  _10
REMARK    6  A    between atoms: _10  and  _11
REMARK    7  A    between atoms: _11  and  _12
REMARK    8  A    between atoms: _16  and  _18
REMARK    9  A    between atoms: _18  and  _19
REMARK   10  A    between atoms: _18  and  _21
REMARK   11  A    between atoms: _21  and  _22
REMARK   12  A    between atoms: _32  and  _34
REMARK   13  A    between atoms: _34  and  _35
REMARK   14  A    between atoms: _34  and  _37
REMARK   15  A    between atoms: _37  and  _38
REMARK   16  A    between atoms: _43  and  _44
REMARK   17  A    between atoms: _46  and  _48
REMARK   18  A    between atoms: _48  and  _49
REMARK   19  A    between atoms: _48  and  _51
REMARK   20  A    between atoms: _51  and  _52
REMARK   21  A    between atoms: _57  and  _58
REMARK   22  A    between atoms: _60  and  _62
REMARK   23  A    between atoms: _62  and  _63
REMARK   24  A    between atoms: _62  and  _65
REMARK   25  A    between atoms: _65  and  _66
REMARK   26  A    between atoms: _69  and  _70
REMARK   27  A    between atoms: _75  and  _77
REMARK   28  A    between atoms: _77  and  _78
REMARK   29  A    between atoms: _77  and  _80
REMARK   30  A    between atoms: _80  and  _81
REMARK   31  A    between atoms: _84  and  _86
REMARK   32  A    between atoms: _86  and  _87
REMARK   33  A    between atoms: _86  and  _89
REMARK   34  A    between atoms: _89  and  _90
REMARK   35  A    between atoms: _95  and  _97
REMARK   36  A    between atoms: _97  and  _98
REMARK   37  A    between atoms: _100  and  _102
REMARK   38  A    between atoms: _102  and  _103
REMARK   39  A    between atoms: _102  and  _105
REMARK   40  A    between atoms: _105  and  _106
REMARK   41  A    between atoms: _111  and  _113
REMARK   42  A    between atoms: _113  and  _114
REMARK   43  A    between atoms: _113  and  _116
REMARK   44  A    between atoms: _116  and  _117
REMARK   45  A    between atoms: _119  and  _121
REMARK   46  A    between atoms: _121  and  _122
REMARK   47  A    between atoms: _121  and  _124
REMARK   48  A    between atoms: _127  and  _129
REMARK   49  A    between atoms: _129  and  _130
REMARK   50  A    between atoms: _129  and  _132
REMARK   51  A    between atoms: _132  and  _133
REMARK   52  A    between atoms: _133  and  _134
REMARK   53  A    between atoms: _134  and  _135
REMARK   54  A    between atoms: _135  and  _136
REMARK   55  A    between atoms: _140  and  _142
REMARK   56  A    between atoms: _142  and  _143
REMARK   57  A    between atoms: _142  and  _145
REMARK   58  A    between atoms: _145  and  _146
REMARK   59  A    between atoms: _149  and  _151
REMARK   60  A    between atoms: _151  and  _152
REMARK   61  A    between atoms: _151  and  _154
REMARK   62  A    between atoms: _154  and  _155
REMARK   63  A    between atoms: _160  and  _162
REMARK   64  A    between atoms: _162  and  _163
REMARK   65  A    between atoms: _166  and  _168
REMARK   66  A    between atoms: _168  and  _169
REMARK   67  A    between atoms: _168  and  _171
REMARK   68  A    between atoms: _171  and  _172
REMARK   69  A    between atoms: _175  and  _177
REMARK   70  A    between atoms: _177  and  _178
REMARK   71  A    between atoms: _177  and  _180
REMARK   72  A    between atoms: _180  and  _181
REMARK   73  A    between atoms: _181  and  _182
REMARK   74  A    between atoms: _187  and  _189
REMARK   75  A    between atoms: _189  and  _190
REMARK   76  A    between atoms: _189  and  _192
REMARK   77  A    between atoms: _192  and  _193
REMARK   78  A    between atoms: _196  and  _198
REMARK   79  A    between atoms: _209  and  _212
REMARK   80  A    between atoms: _212  and  _213
REMARK   81  A    between atoms: _218  and  _219
REMARK   82  A    between atoms: _227  and  _229
REMARK   83  A    between atoms: _229  and  _230
REMARK   84  A    between atoms: _229  and  _232
REMARK   85  A    between atoms: _232  and  _233
REMARK   86  A    between atoms: _243  and  _245
REMARK   87  A    between atoms: _245  and  _246
REMARK   88  A    between atoms: _245  and  _248
REMARK   89  A    between atoms: _248  and  _249
REMARK   90  A    between atoms: _249  and  _250
REMARK   91  A    between atoms: _253  and  _255
REMARK   92  A    between atoms: _255  and  _256
REMARK   93  A    between atoms: _255  and  _258
REMARK   94  A    between atoms: _258  and  _259
REMARK   95  A    between atoms: _264  and  _266
REMARK   96  A    between atoms: _266  and  _267
REMARK   97  A    between atoms: _266  and  _269
REMARK   98  A    between atoms: _269  and  _270
REMARK   99  A    between atoms: _270  and  _271
REMARK  100  A    between atoms: _274  and  _276
REMARK  101  A    between atoms: _276  and  _277
REMARK  102  A    between atoms: _276  and  _279
REMARK  103  A    between atoms: _279  and  _280
REMARK  104  A    between atoms: _283  and  _285
REMARK  105  A    between atoms: _285  and  _286
REMARK  106  A    between atoms: _285  and  _288
REMARK  107  A    between atoms: _288  and  _289
REMARK  108  A    between atoms: _290  and  ZN_582
REMARK  109  A    between atoms: _294  and  _296
REMARK  110  A    between atoms: _296  and  _297
REMARK  111  A    between atoms: _296  and  _299
REMARK  112  A    between atoms: _299  and  _300
REMARK  113  A    between atoms: _303  and  _305
REMARK  114  A    between atoms: _305  and  _306
REMARK  115  A    between atoms: _305  and  _308
REMARK  116  A    between atoms: _311  and  _313
REMARK  117  A    between atoms: _313  and  _314
REMARK  118  A    between atoms: _313  and  _316
REMARK  119  A    between atoms: _316  and  _317
REMARK  120  A    between atoms: _322  and  _324
REMARK  121  A    between atoms: _324  and  _325
REMARK  122  A    between atoms: _324  and  _327
REMARK  123  A    between atoms: _327  and  _328
REMARK  124  A    between atoms: _333  and  _334
REMARK  125  A    between atoms: _336  and  _338
REMARK  126  A    between atoms: _338  and  _339
REMARK  127  A    between atoms: _338  and  _341
REMARK  128  A    between atoms: _341  and  _342
REMARK  129  A    between atoms: _345  and  _347
REMARK  130  A    between atoms: _347  and  _348
REMARK  131  A    between atoms: _351  and  _353
REMARK  132  A    between atoms: _353  and  _354
REMARK  133  A    between atoms: _353  and  _356
REMARK  134  A    between atoms: _356  and  _357
REMARK  135  A    between atoms: _359  and  _361
REMARK  136  A    between atoms: _361  and  _362
REMARK  137  A    between atoms: _361  and  _364
REMARK  138  A    between atoms: _364  and  _365
REMARK  139  A    between atoms: _368  and  _370
REMARK  140  A    between atoms: _370  and  _371
REMARK  141  A    between atoms: _374  and  _376
REMARK  142  A    between atoms: _376  and  _377
REMARK  143  A    between atoms: _376  and  _379
REMARK  144  A    between atoms: _379  and  _380
REMARK  145  A    between atoms: _382  and  _384
REMARK  146  A    between atoms: _384  and  _385
REMARK  147  A    between atoms: _384  and  _387
REMARK  148  A    between atoms: _387  and  _388
REMARK  149  A    between atoms: _393  and  _395
REMARK  150  A    between atoms: _395  and  _396
REMARK  151  A    between atoms: _398  and  _400
REMARK  152  A    between atoms: _400  and  _401
REMARK  153  A    between atoms: _400  and  _403
REMARK  154  A    between atoms: _403  and  _404
REMARK  155  A    between atoms: _407  and  _409
REMARK  156  A    between atoms: _409  and  _410
REMARK  157  A    between atoms: _413  and  _415
REMARK  158  A    between atoms: _415  and  _416
REMARK  159  A    between atoms: _415  and  _418
REMARK  160  A    between atoms: _421  and  _423
REMARK  161  A    between atoms: _423  and  _424
REMARK  162  A    between atoms: _423  and  _426
REMARK  163  A    between atoms: _426  and  _427
REMARK  164  A    between atoms: _430  and  _432
REMARK  165  A    between atoms: _432  and  _433
REMARK  166  A    between atoms: _436  and  _438
REMARK  167  A    between atoms: _438  and  _439
REMARK  168  A    between atoms: _438  and  _441
REMARK  169  A    between atoms: _441  and  _442
REMARK  170  A    between atoms: _444  and  _446
REMARK  171  A    between atoms: _446  and  _447
REMARK  172  A    between atoms: _446  and  _449
REMARK  173  A    between atoms: _449  and  _450
REMARK  174  A    between atoms: _453  and  _455
REMARK  175  A    between atoms: _455  and  _456
REMARK  176  A    between atoms: _455  and  _458
REMARK  177  A    between atoms: _458  and  _459
REMARK  178  A    between atoms: _462  and  _464
REMARK  179  A    between atoms: _464  and  _465
REMARK  180  A    between atoms: _464  and  _467
REMARK  181  A    between atoms: _467  and  _468
REMARK  182  A    between atoms: _472  and  _473
REMARK  183  A    between atoms: _479  and  _480
REMARK  184  A    between atoms: _485  and  _487
REMARK  185  A    between atoms: _487  and  _488
REMARK  186  A    between atoms: _487  and  _490
REMARK  187  A    between atoms: _492  and  _494
REMARK  188  A    between atoms: _494  and  _495
REMARK  189  A    between atoms: _494  and  _497
REMARK  190  A    between atoms: _497  and  _498
REMARK  191  A    between atoms: _503  and  _505
REMARK  192  A    between atoms: _505  and  _506
REMARK  193  A    between atoms: _505  and  _508
REMARK  194  A    between atoms: _508  and  _509
REMARK  195  A    between atoms: _512  and  _514
REMARK  196  A    between atoms: _514  and  _515
REMARK  197  A    between atoms: _514  and  _517
REMARK  198  A    between atoms: _520  and  _522
REMARK  199  A    between atoms: _522  and  _523
REMARK  200  A    between atoms: _522  and  _525
REMARK  201  A    between atoms: _525  and  _526
REMARK  202  A    between atoms: _529  and  _531
REMARK  203  A    between atoms: _531  and  _532
REMARK  204  A    between atoms: _531  and  _534
REMARK  205  A    between atoms: _534  and  _535
REMARK  206  A    between atoms: _545  and  _547
REMARK  207  A    between atoms: _547  and  _548
REMARK  208  A    between atoms: _547  and  _550
REMARK  209  A    between atoms: _550  and  _551
REMARK  210  A    between atoms: _551  and  _552
REMARK  211  A    between atoms: _554  and  _556
REMARK  212  A    between atoms: _556  and  _557
REMARK  213  A    between atoms: _556  and  _559
REMARK  214  A    between atoms: _559  and  _560
REMARK  215  A    between atoms: _565  and  _567
REMARK  216  A    between atoms: _567  and  _568
REMARK  217  A    between atoms: _567  and  _570
REMARK  218  A    between atoms: _570  and  _571
REMARK  219  A    between atoms: _571  and  _572
REMARK  220  A    between atoms: _572  and  _573
REMARK                            x       y       z     vdW  Elec       q    Type
REMARK                         _______ _______ _______ _____ _____    ______ ____
ROOT
ATOM      1  C   ALA A   3      29.394  -0.754   4.580  0.00  0.00    +0.241 C 
ATOM      2  O   ALA A   3      30.247  -0.665   5.415  0.00  0.00    -0.273 OA
ATOM      3  N   VAL A   4      28.213  -1.341   4.824  0.00  0.00    -0.297 N 
ATOM      4  H   VAL A   4      27.535  -1.469   4.046  0.00  0.00    +0.150 HD
ENDROOT
BRANCH   1   5
ATOM      5  CA  ALA A   3      29.633  -0.298   3.182  0.00  0.00    +0.149 C 
ATOM      6  CB  ALA A   3      30.659  -1.170   2.408  0.00  0.00    +0.031 C 
BRANCH   5   8
ATOM      7  C   LEU A   2      29.593   2.006   2.402  0.00  0.00    +0.241 C 
ATOM      8  N   ALA A   3      30.070   1.079   3.248  0.00  0.00    -0.297 N 
ATOM      9  H   ALA A   3      30.769   1.357   3.966  0.00  0.00    +0.150 HD
ATOM     10  O   LEU A   2      28.924   1.740   1.412  0.00  0.00    -0.273 OA
BRANCH   7  11
ATOM     11  CA  LEU A   2      29.950   3.419   2.742  0.00  0.00    +0.149 C 
BRANCH  11  14
ATOM     12  C   GLY A   1      31.114   5.039   1.307  0.00  0.00    +0.240 C 
ATOM     13  O   GLY A   1      32.139   5.006   1.999  0.00  0.00    -0.274 OA
ATOM     14  N   LEU A   2      30.015   4.285   1.574  0.00  0.00    -0.297 N 
ATOM     15  H   LEU A   2      29.201   4.328   0.928  0.00  0.00    +0.150 HD
BRANCH  12  16
ATOM     16  CA  GLY A   1      30.942   6.099   0.220  0.00  0.00    +0.169 C 
BRANCH  16  17
ATOM     17  N   GLY A   1      30.205   5.716  -0.948  0.00  0.00    -0.236 NA
ATOM     18  H   GLY A   1      29.251   6.095  -1.119  0.00  0.00    +0.142 HD
ENDBRANCH  16  17
ENDBRANCH  12  16
ENDBRANCH  11  14
BRANCH  11  19
ATOM     19  CB  LEU A   2      28.877   3.910   3.782  0.00  0.00    +0.029 C 
BRANCH  19  20
ATOM     20  CG  LEU A   2      29.041   5.413   4.206  0.00  0.00    +0.002 C 
ATOM     21  CD2 LEU A   2      30.323   5.536   5.051  0.00  0.00    +0.000 C 
ATOM     22  CD1 LEU A   2      27.769   5.857   4.969  0.00  0.00    +0.000 C 
ENDBRANCH  19  20
ENDBRANCH  11  19
ENDBRANCH   7  11
ENDBRANCH   5   8
ENDBRANCH   1   5
BRANCH   3  23
ATOM     23  CA  VAL A   4      27.868  -1.796   6.143  0.00  0.00    +0.149 C 
BRANCH  23  24
ATOM     24  C   VAL A   4      27.658  -3.298   6.116  0.00  0.00    +0.241 C 
ATOM     25  N   LEU A   5      28.205  -4.042   7.104  0.00  0.00    -0.297 N 
ATOM     26  H   LEU A   5      28.853  -3.602   7.788  0.00  0.00    +0.150 HD
ATOM     27  O   VAL A   4      26.943  -3.784   5.197  0.00  0.00    -0.273 OA
BRANCH  25  28
ATOM     28  CA  LEU A   5      27.890  -5.450   7.210  0.00  0.00    +0.149 C 
BRANCH  28  29
ATOM     29  C   LEU A   5      26.836  -5.545   8.326  0.00  0.00    +0.241 C 
ATOM     30  O   LEU A   5      27.002  -4.872   9.415  0.00  0.00    -0.273 OA
ATOM     31  N   ALA A   6      25.802  -6.347   8.096  0.00  0.00    -0.298 N 
ATOM     32  H   ALA A   6      25.750  -6.886   7.208  0.00  0.00    +0.150 HD
BRANCH  31  33
ATOM     33  CA  ALA A   6      24.732  -6.473   9.095  0.00  0.00    +0.137 C 
ATOM     34  CB  ALA A   6      23.394  -6.009   8.504  0.00  0.00    +0.030 C 
BRANCH  33  35
ATOM     35  C   ALA A   6      24.641  -7.952   9.488  0.00  0.00    +0.227 C 
ATOM     36  O   ALA A   6      24.525  -8.808   8.622  0.00  0.00    -0.286 OA
ENDBRANCH  33  35
ENDBRANCH  31  33
ENDBRANCH  28  29
BRANCH  28  37
ATOM     37  CB  LEU A   5      29.120  -6.205   7.743  0.00  0.00    +0.029 C 
BRANCH  37  38
ATOM     38  CG  LEU A   5      30.352  -6.094   6.832  0.00  0.00    +0.002 C 
ATOM     39  CD2 LEU A   5      31.494  -6.927   7.471  0.00  0.00    +0.000 C 
ATOM     40  CD1 LEU A   5      30.073  -6.620   5.448  0.00  0.00    +0.000 C 
ENDBRANCH  37  38
ENDBRANCH  28  37
ENDBRANCH  25  28
ENDBRANCH  23  24
BRANCH  23  41
ATOM     41  CB  VAL A   4      26.597  -1.136   6.686  0.00  0.00    +0.027 C 
ATOM     42  CG2 VAL A   4      26.341  -1.615   8.142  0.00  0.00    +0.002 C 
ATOM     43  CG1 VAL A   4      26.802   0.362   6.734  0.00  0.00    +0.002 C 
ENDBRANCH  23  41
ENDBRANCH   3  23
TORSDOF 17
REMARK  Name = ../refined-set-2016/4qj0/4qj0_pocket.pdb
REMARK  220 active torsions:
REMARK  status: ('A' for Active; 'I' for Inactive)
REMARK    1  A    between atoms: _1  and  _5
REMARK    2  A    between atoms: _5  and  _6
REMARK    3  A    between atoms: _5  and  _8
REMARK    4  A    between atoms: _8  and  _9
REMARK    5  A    between atoms: _9  and  _10
REMARK    6  A    between atoms: _10  and  _11
REMARK    7  A    between atoms: _11  and  _12
REMARK    8  A    between atoms: _16  and  _18
REMARK    9  A    between atoms: _18  and  _19
REMARK   10  A    between atoms: _18  and  _21
REMARK   11  A    between atoms: _21  and  _22
REMARK   12  A    between atoms: _32  and  _34
REMARK   13  A    between atoms: _34  and  _35
REMARK   14  A    between atoms: _34  and  _37
REMARK   15  A    between atoms: _37  and  _38
REMARK   16  A    between atoms: _43  and  _44
REMARK   17  A    between atoms: _46  and  _48
REMARK   18  A    between atoms: _48  and  _49
REMARK   19  A    between atoms: _48  and  _51
REMARK   20  A    between atoms: _51  and  _52
REMARK   21  A    between atoms: _57  and  _58
REMARK   22  A    between atoms: _60  and  _62
REMARK   23  A    between atoms: _62  and  _63
REMARK   24  A    between atoms: _62  and  _65
REMARK   25  A    between atoms: _65  and  _66
REMARK   26  A    between atoms: _69  and  _70
REMARK   27  A    between atoms: _75  and  _77
REMARK   28  A    between atoms: _77  and  _78
REMARK   29  A    between atoms: _77  and  _80
REMARK   30  A    between atoms: _80  and  _81
REMARK   31  A    between atoms: _84  and  _86
REMARK   32  A    between atoms: _86  and  _87
REMARK   33  A    between atoms: _86  and  _89
REMARK   34  A    between atoms: _89  and  _90
REMARK   35  A    between atoms: _95  and  _97
REMARK   36  A    between atoms: _97  and  _98
REMARK   37  A    between atoms: _100  and  _102
REMARK   38  A    between atoms: _102  and  _103
REMARK   39  A    between atoms: _102  and  _105
REMARK   40  A    between atoms: _105  and  _106
REMARK   41  A    between atoms: _111  and  _113
REMARK   42  A    between atoms: _113  and  _114
REMARK   43  A    between atoms: _113  and  _116
REMARK   44  A    between atoms: _116  and  _117
REMARK   45  A    between atoms: _119  and  _121
REMARK   46  A    between atoms: _121  and  _122
REMARK   47  A    between atoms: _121  and  _124
REMARK   48  A    between atoms: _127  and  _129
REMARK   49  A    between atoms: _129  and  _130
REMARK   50  A    between atoms: _129  and  _132
REMARK   51  A    between atoms: _132  and  _133
REMARK   52  A    between atoms: _133  and  _134
REMARK   53  A    between atoms: _134  and  _135
REMARK   54  A    between atoms: _135  and  _136
REMARK   55  A    between atoms: _140  and  _142
REMARK   56  A    between atoms: _142  and  _143
REMARK   57  A    between atoms: _142  and  _145
REMARK   58  A    between atoms: _145  and  _146
REMARK   59  A    between atoms: _149  and  _151
REMARK   60  A    between atoms: _151  and  _152
REMARK   61  A    between atoms: _151  and  _154
REMARK   62  A    between atoms: _154  and  _155
REMARK   63  A    between atoms: _160  and  _162
REMARK   64  A    between atoms: _162  and  _163
REMARK   65  A    between atoms: _166  and  _168
REMARK   66  A    between atoms: _168  and  _169
REMARK   67  A    between atoms: _168  and  _171
REMARK   68  A    between atoms: _171  and  _172
REMARK   69  A    between atoms: _175  and  _177
REMARK   70  A    between atoms: _177  and  _178
REMARK   71  A    between atoms: _177  and  _180
REMARK   72  A    between atoms: _180  and  _181
REMARK   73  A    between atoms: _181  and  _182
REMARK   74  A    between atoms: _187  and  _189
REMARK   75  A    between atoms: _189  and  _190
REMARK   76  A    between atoms: _189  and  _192
REMARK   77  A    between atoms: _192  and  _193
REMARK   78  A    between atoms: _196  and  _198
REMARK   79  A    between atoms: _209  and  _212
REMARK   80  A    between atoms: _212  and  _213
REMARK   81  A    between atoms: _218  and  _219
REMARK   82  A    between atoms: _227  and  _229
REMARK   83  A    between atoms: _229  and  _230
REMARK   84  A    between atoms: _229  and  _232
REMARK   85  A    between atoms: _232  and  _233
REMARK   86  A    between atoms: _243  and  _245
REMARK   87  A    between atoms: _245  and  _246
REMARK   88  A    between atoms: _245  and  _248
REMARK   89  A    between atoms: _248  and  _249
REMARK   90  A    between atoms: _249  and  _250
REMARK   91  A    between atoms: _253  and  _255
REMARK   92  A    between atoms: _255  and  _256
REMARK   93  A    between atoms: _255  and  _258
REMARK   94  A    between atoms: _258  and  _259
REMARK   95  A    between atoms: _264  and  _266
REMARK   96  A    between atoms: _266  and  _267
REMARK   97  A    between atoms: _266  and  _269
REMARK   98  A    between atoms: _269  and  _270
REMARK   99  A    between atoms: _270  and  _271
REMARK  100  A    between atoms: _274  and  _276
REMARK  101  A    between atoms: _276  and  _277
REMARK  102  A    between atoms: _276  and  _279
REMARK  103  A    between atoms: _279  and  _280
REMARK  104  A    between atoms: _283  and  _285
REMARK  105  A    between atoms: _285  and  _286
REMARK  106  A    between atoms: _285  and  _288
REMARK  107  A    between atoms: _288  and  _289
REMARK  108  A    between atoms: _290  and  ZN_582
REMARK  109  A    between atoms: _294  and  _296
REMARK  110  A    between atoms: _296  and  _297
REMARK  111  A    between atoms: _296  and  _299
REMARK  112  A    between atoms: _299  and  _300
REMARK  113  A    between atoms: _303  and  _305
REMARK  114  A    between atoms: _305  and  _306
REMARK  115  A    between atoms: _305  and  _308
REMARK  116  A    between atoms: _311  and  _313
REMARK  117  A    between atoms: _313  and  _314
REMARK  118  A    between atoms: _313  and  _316
REMARK  119  A    between atoms: _316  and  _317
REMARK  120  A    between atoms: _322  and  _324
REMARK  121  A    between atoms: _324  and  _325
REMARK  122  A    between atoms: _324  and  _327
REMARK  123  A    between atoms: _327  and  _328
REMARK  124  A    between atoms: _333  and  _334
REMARK  125  A    between atoms: _336  and  _338
REMARK  126  A    between atoms: _338  and  _339
REMARK  127  A    between atoms: _338  and  _341
REMARK  128  A    between atoms: _341  and  _342
REMARK  129  A    between atoms: _345  and  _347
REMARK  130  A    between atoms: _347  and  _348
REMARK  131  A    between atoms: _351  and  _353
REMARK  132  A    between atoms: _353  and  _354
REMARK  133  A    between atoms: _353  and  _356
REMARK  134  A    between atoms: _356  and  _357
REMARK  135  A    between atoms: _359  and  _361
REMARK  136  A    between atoms: _361  and  _362
REMARK  137  A    between atoms: _361  and  _364
REMARK  138  A    between atoms: _364  and  _365
REMARK  139  A    between atoms: _368  and  _370
REMARK  140  A    between atoms: _370  and  _371
REMARK  141  A    between atoms: _374  and  _376
REMARK  142  A    between atoms: _376  and  _377
REMARK  143  A    between atoms: _376  and  _379
REMARK  144  A    between atoms: _379  and  _380
REMARK  145  A    between atoms: _382  and  _384
REMARK  146  A    between atoms: _384  and  _385
REMARK  147  A    between atoms: _384  and  _387
REMARK  148  A    between atoms: _387  and  _388
REMARK  149  A    between atoms: _393  and  _395
REMARK  150  A    between atoms: _395  and  _396
REMARK  151  A    between atoms: _398  and  _400
REMARK  152  A    between atoms: _400  and  _401
REMARK  153  A    between atoms: _400  and  _403
REMARK  154  A    between atoms: _403  and  _404
REMARK  155  A    between atoms: _407  and  _409
REMARK  156  A    between atoms: _409  and  _410
REMARK  157  A    between atoms: _413  and  _415
REMARK  158  A    between atoms: _415  and  _416
REMARK  159  A    between atoms: _415  and  _418
REMARK  160  A    between atoms: _421  and  _423
REMARK  161  A    between atoms: _423  and  _424
REMARK  162  A    between atoms: _423  and  _426
REMARK  163  A    between atoms: _426  and  _427
REMARK  164  A    between atoms: _430  and  _432
REMARK  165  A    between atoms: _432  and  _433
REMARK  166  A    between atoms: _436  and  _438
REMARK  167  A    between atoms: _438  and  _439
REMARK  168  A    between atoms: _438  and  _441
REMARK  169  A    between atoms: _441  and  _442
REMARK  170  A    between atoms: _444  and  _446
REMARK  171  A    between atoms: _446  and  _447
REMARK  172  A    between atoms: _446  and  _449
REMARK  173  A    between atoms: _449  and  _450
REMARK  174  A    between atoms: _453  and  _455
REMARK  175  A    between atoms: _455  and  _456
REMARK  176  A    between atoms: _455  and  _458
REMARK  177  A    between atoms: _458  and  _459
REMARK  178  A    between atoms: _462  and  _464
REMARK  179  A    between atoms: _464  and  _465
REMARK  180  A    between atoms: _464  and  _467
REMARK  181  A    between atoms: _467  and  _468
REMARK  182  A    between atoms: _472  and  _473
REMARK  183  A    between atoms: _479  and  _480
REMARK  184  A    between atoms: _485  and  _487
REMARK  185  A    between atoms: _487  and  _488
REMARK  186  A    between atoms: _487  and  _490
REMARK  187  A    between atoms: _492  and  _494
REMARK  188  A    between atoms: _494  and  _495
REMARK  189  A    between atoms: _494  and  _497
REMARK  190  A    between atoms: _497  and  _498
REMARK  191  A    between atoms: _503  and  _505
REMARK  192  A    between atoms: _505  and  _506
REMARK  193  A    between atoms: _505  and  _508
REMARK  194  A    between atoms: _508  and  _509
REMARK  195  A    between atoms: _512  and  _514
REMARK  196  A    between atoms: _514  and  _515
REMARK  197  A    between atoms: _514  and  _517
REMARK  198  A    between atoms: _520  and  _522
REMARK  199  A    between atoms: _522  and  _523
REMARK  200  A    between atoms: _522  and  _525
REMARK  201  A    between atoms: _525  and  _526
REMARK  202  A    between atoms: _529  and  _531
REMARK  203  A    between atoms: _531  and  _532
REMARK  204  A    between atoms: _531  and  _534
REMARK  205  A    between atoms: _534  and  _535
REMARK  206  A    between atoms: _545  and  _547
REMARK  207  A    between atoms: _547  and  _548
REMARK  208  A    between atoms: _547  and  _550
REMARK  209  A    between atoms: _550  and  _551
REMARK  210  A    between atoms: _551  and  _552
REMARK  211  A    between atoms: _554  and  _556
REMARK  212  A    between atoms: _556  and  _557
REMARK  213  A    between atoms: _556  and  _559
REMARK  214  A    between atoms: _559  and  _560
REMARK  215  A    between atoms: _565  and  _567
REMARK  216  A    between atoms: _567  and  _568
REMARK  217  A    between atoms: _567  and  _570
REMARK  218  A    between atoms: _570  and  _571
REMARK  219  A    between atoms: _571  and  _572
REMARK  220  A    between atoms: _572  and  _573
REMARK                            x       y       z     vdW  Elec       q    Type
REMARK                         _______ _______ _______ _____ _____    ______ ____
ROOT
ATOM      1  C   THR A   4      20.013   8.221  10.117  0.00  0.00    +0.246 C 
ATOM      2  N   PRO A   5      19.487   9.343  10.656  0.00  0.00    -0.272 N 
ATOM      3  CD  PRO A   5      18.485   9.511  11.729  0.00  0.00    +0.094 C 
ATOM      4  CG  PRO A   5      18.065  10.977  11.577  0.00  0.00    +0.024 C 
ATOM      5  CB  PRO A   5      19.284  11.616  10.984  0.00  0.00    +0.031 C 
ATOM      6  CA  PRO A   5      19.838  10.585   9.986  0.00  0.00    +0.152 C 
ATOM      7  O   THR A   4      20.713   8.218   9.087  0.00  0.00    -0.273 OA
ENDROOT
BRANCH   6   8
ATOM      8  C   PRO A   5      21.357  10.740   9.849  0.00  0.00    +0.244 C 
ATOM      9  O   PRO A   5      22.065  10.320  10.756  0.00  0.00    -0.273 OA
ATOM     10  N   PRO A   6      21.805  11.295   8.755  0.00  0.00    -0.272 N 
ATOM     11  CD  PRO A   6      23.261  11.589   8.639  0.00  0.00    +0.094 C 
ATOM     12  CG  PRO A   6      23.240  12.943   7.908  0.00  0.00    +0.024 C 
ATOM     13  CB  PRO A   6      22.037  13.015   7.052  0.00  0.00    +0.031 C 
ATOM     14  CA  PRO A   6      21.009  12.032   7.692  0.00  0.00    +0.152 C 
BRANCH  14  15
ATOM     15  C   PRO A   6      20.435  11.167   6.594  0.00  0.00    +0.241 C 
ATOM     16  N   CYS A   7      20.522   9.851   6.766  0.00  0.00    -0.296 N 
ATOM     17  H   CYS A   7      21.064   9.490   7.577  0.00  0.00    +0.150 HD
ATOM     18  O   PRO A   6      20.000  11.643   5.596  0.00  0.00    -0.273 OA
BRANCH  16  19
ATOM     19  CA  CYS A   7      19.872   8.863   5.840  0.00  0.00    +0.160 C 
BRANCH  19  20
ATOM     20  C   CYS A   7      20.457   8.905   4.429  0.00  0.00    +0.242 C 
ATOM     21  N   ASN A   8      21.737   9.262   4.311  0.00  0.00    -0.298 N 
ATOM     22  H   ASN A   8      22.324   9.427   5.154  0.00  0.00    +0.150 HD
ATOM     23  O   CYS A   7      19.787   8.577   3.442  0.00  0.00    -0.273 OA
BRANCH  21  24
ATOM     24  CA  ASN A   8      22.309   9.419   2.934  0.00  0.00    +0.146 C 
BRANCH  24  25
ATOM     25  C   ASN A   8      22.246   8.086   2.197  0.00  0.00    +0.227 C 
ATOM     26  O   ASN A   8      22.495   7.002   2.779  0.00  0.00    -0.286 OA
ENDBRANCH  24  25
BRANCH  24  27
ATOM     27  CB  ASN A   8      23.748   9.868   3.002  0.00  0.00    +0.112 C 
BRANCH  27  28
ATOM     28  CG  ASN A   8      23.861  11.089   3.851  0.00  0.00    +0.222 C 
ATOM     29  OD1 ASN A   8      23.902  10.999   5.036  0.00  0.00    -0.275 OA
ATOM     30  ND2 ASN A   8      23.781  12.245   3.218  0.00  0.00    -0.329 N 
ATOM     31 HD21 ASN A   8      23.751  13.133   3.759  0.00  0.00    +0.145 HD
ATOM     32 HD22 ASN A   8      23.748  12.268   2.179  0.00  0.00    +0.145 HD
ENDBRANCH  27  28
ENDBRANCH  24  27
ENDBRANCH  21  24
ENDBRANCH  19  20
BRANCH  19  33
ATOM     33  CB  CYS A   7      18.329   9.103   5.795  0.00  0.00    +0.098 C 
ATOM     34  SG  CYS A   7      17.451   9.005   7.371  0.00  0.00    -0.080 S 
ENDBRANCH  19  33
ENDBRANCH  16  19
ENDBRANCH  14  15
ENDBRANCH   6   8
BRANCH   1  35
ATOM     35  CA  THR A   4      19.694   6.949  10.837  0.00  0.00    +0.176 C 
BRANCH  35  38
ATOM     36  C   THR A   3      18.860   4.931   9.673  0.00  0.00    +0.243 C 
ATOM     37  O   THR A   3      17.838   4.830  10.442  0.00  0.00    -0.273 OA
ATOM     38  N   THR A   4      19.772   5.907   9.818  0.00  0.00    -0.295 N 
ATOM     39  H   THR A   4      20.582   5.921   9.165  0.00  0.00    +0.150 HD
BRANCH  36  40
ATOM     40  CA  THR A   3      19.165   3.886   8.595  0.00  0.00    +0.176 C 
BRANCH  40  42
ATOM     41  C   LEU A   2      20.667   4.755   6.951  0.00  0.00    +0.241 C 
ATOM     42  N   THR A   3      20.492   4.018   8.030  0.00  0.00    -0.295 N 
ATOM     43  H   THR A   3      21.300   3.535   8.472  0.00  0.00    +0.150 HD
ATOM     44  O   LEU A   2      19.712   5.301   6.395  0.00  0.00    -0.273 OA
BRANCH  41  45
ATOM     45  CA  LEU A   2      22.104   4.965   6.387  0.00  0.00    +0.149 C 
BRANCH  45  47
ATOM     46  C   SER A   1      21.512   3.939   4.294  0.00  0.00    +0.241 C 
ATOM     47  N   LEU A   2      21.997   4.985   4.927  0.00  0.00    -0.297 N 
ATOM     48  H   LEU A   2      22.303   5.823   4.393  0.00  0.00    +0.150 HD
ATOM     49  O   SER A   1      21.307   2.839   4.847  0.00  0.00    -0.274 OA
BRANCH  46  50
ATOM     50  CA  SER A   1      21.047   4.232   2.830  0.00  0.00    +0.174 C 
BRANCH  50  51
ATOM     51  N   SER A   1      20.722   2.944   2.170  0.00  0.00    -0.236 NA
ATOM     52  H   SER A   1      20.166   2.216   2.662  0.00  0.00    +0.142 HD
ENDBRANCH  50  51
BRANCH  50  53
ATOM     53  CB  SER A   1      19.822   5.138   2.925  0.00  0.00    +0.163 C 
BRANCH  53  54
ATOM     54  OG  SER A   1      18.863   4.644   3.895  0.00  0.00    -0.380 OA
ATOM     55  H   SER A   1      19.290   4.602   4.787  0.00  0.00    +0.211 HD
ENDBRANCH  53  54
ENDBRANCH  50  53
ENDBRANCH  46  50
ENDBRANCH  45  47
BRANCH  45  56
ATOM     56  CB  LEU A   2      22.741   6.257   6.994  0.00  0.00    +0.029 C 
BRANCH  56  57
ATOM     57  CG  LEU A   2      24.232   6.503   6.652  0.00  0.00    +0.002 C 
ATOM     58  CD2 LEU A   2      24.687   7.640   7.553  0.00  0.00    +0.000 C 
ATOM     59  CD1 LEU A   2      24.495   7.002   5.252  0.00  0.00    +0.000 C 
ENDBRANCH  56  57
ENDBRANCH  45  56
ENDBRANCH  41  45
ENDBRANCH  40  42
BRANCH  40  60
ATOM     60  CB  THR A   3      19.027   2.466   9.241  0.00  0.00    +0.137 C 
ATOM     61  CG2 THR A   3      19.204   1.316   8.225  0.00  0.00    +0.034 C 
BRANCH  60  62
ATOM     62  OG1 THR A   3      19.972   2.343  10.312  0.00  0.00    -0.382 OA
ATOM     63  HG1 THR A   3      19.888   1.446  10.723  0.00  0.00    +0.210 HD
ENDBRANCH  60  62
ENDBRANCH  40  60
ENDBRANCH  36  40
ENDBRANCH  35  38
BRANCH  35  64
ATOM     64  CB  THR A   4      20.810   6.840  11.940  0.00  0.00    +0.137 C 
ATOM     65  CG2 THR A   4      20.617   5.496  12.747  0.00  0.00    +0.034 C 
BRANCH  64  66
ATOM     66  OG1 THR A   4      22.070   6.792  11.327  0.00  0.00    -0.382 OA
ATOM     67  HG1 THR A   4      22.209   7.616  10.796  0.00  0.00    +0.210 HD
ENDBRANCH  64  66
ENDBRANCH  35  64
ENDBRANCH   1  35
TORSDOF 25
REMARK  Name = ../refined-set-2016/4qj0/4qj0_pocket.pdb
REMARK  220 active torsions:
REMARK  status: ('A' for Active; 'I' for Inactive)
REMARK    1  A    between atoms: _1  and  _5
REMARK    2  A    between atoms: _5  and  _6
REMARK    3  A    between atoms: _5  and  _8
REMARK    4  A    between atoms: _8  and  _9
REMARK    5  A    between atoms: _9  and  _10
REMARK    6  A    between atoms: _10  and  _11
REMARK    7  A    between atoms: _11  and  _12
REMARK    8  A    between atoms: _16  and  _18
REMARK    9  A    between atoms: _18  and  _19
REMARK   10  A    between atoms: _18  and  _21
REMARK   11  A    between atoms: _21  and  _22
REMARK   12  A    between atoms: _32  and  _34
REMARK   13  A    between atoms: _34  and  _35
REMARK   14  A    between atoms: _34  and  _37
REMARK   15  A    between atoms: _37  and  _38
REMARK   16  A    between atoms: _43  and  _44
REMARK   17  A    between atoms: _46  and  _48
REMARK   18  A    between atoms: _48  and  _49
REMARK   19  A    between atoms: _48  and  _51
REMARK   20  A    between atoms: _51  and  _52
REMARK   21  A    between atoms: _57  and  _58
REMARK   22  A    between atoms: _60  and  _62
REMARK   23  A    between atoms: _62  and  _63
REMARK   24  A    between atoms: _62  and  _65
REMARK   25  A    between atoms: _65  and  _66
REMARK   26  A    between atoms: _69  and  _70
REMARK   27  A    between atoms: _75  and  _77
REMARK   28  A    between atoms: _77  and  _78
REMARK   29  A    between atoms: _77  and  _80
REMARK   30  A    between atoms: _80  and  _81
REMARK   31  A    between atoms: _84  and  _86
REMARK   32  A    between atoms: _86  and  _87
REMARK   33  A    between atoms: _86  and  _89
REMARK   34  A    between atoms: _89  and  _90
REMARK   35  A    between atoms: _95  and  _97
REMARK   36  A    between atoms: _97  and  _98
REMARK   37  A    between atoms: _100  and  _102
REMARK   38  A    between atoms: _102  and  _103
REMARK   39  A    between atoms: _102  and  _105
REMARK   40  A    between atoms: _105  and  _106
REMARK   41  A    between atoms: _111  and  _113
REMARK   42  A    between atoms: _113  and  _114
REMARK   43  A    between atoms: _113  and  _116
REMARK   44  A    between atoms: _116  and  _117
REMARK   45  A    between atoms: _119  and  _121
REMARK   46  A    between atoms: _121  and  _122
REMARK   47  A    between atoms: _121  and  _124
REMARK   48  A    between atoms: _127  and  _129
REMARK   49  A    between atoms: _129  and  _130
REMARK   50  A    between atoms: _129  and  _132
REMARK   51  A    between atoms: _132  and  _133
REMARK   52  A    between atoms: _133  and  _134
REMARK   53  A    between atoms: _134  and  _135
REMARK   54  A    between atoms: _135  and  _136
REMARK   55  A    between atoms: _140  and  _142
REMARK   56  A    between atoms: _142  and  _143
REMARK   57  A    between atoms: _142  and  _145
REMARK   58  A    between atoms: _145  and  _146
REMARK   59  A    between atoms: _149  and  _151
REMARK   60  A    between atoms: _151  and  _152
REMARK   61  A    between atoms: _151  and  _154
REMARK   62  A    between atoms: _154  and  _155
REMARK   63  A    between atoms: _160  and  _162
REMARK   64  A    between atoms: _162  and  _163
REMARK   65  A    between atoms: _166  and  _168
REMARK   66  A    between atoms: _168  and  _169
REMARK   67  A    between atoms: _168  and  _171
REMARK   68  A    between atoms: _171  and  _172
REMARK   69  A    between atoms: _175  and  _177
REMARK   70  A    between atoms: _177  and  _178
REMARK   71  A    between atoms: _177  and  _180
REMARK   72  A    between atoms: _180  and  _181
REMARK   73  A    between atoms: _181  and  _182
REMARK   74  A    between atoms: _187  and  _189
REMARK   75  A    between atoms: _189  and  _190
REMARK   76  A    between atoms: _189  and  _192
REMARK   77  A    between atoms: _192  and  _193
REMARK   78  A    between atoms: _196  and  _198
REMARK   79  A    between atoms: _209  and  _212
REMARK   80  A    between atoms: _212  and  _213
REMARK   81  A    between atoms: _218  and  _219
REMARK   82  A    between atoms: _227  and  _229
REMARK   83  A    between atoms: _229  and  _230
REMARK   84  A    between atoms: _229  and  _232
REMARK   85  A    between atoms: _232  and  _233
REMARK   86  A    between atoms: _243  and  _245
REMARK   87  A    between atoms: _245  and  _246
REMARK   88  A    between atoms: _245  and  _248
REMARK   89  A    between atoms: _248  and  _249
REMARK   90  A    between atoms: _249  and  _250
REMARK   91  A    between atoms: _253  and  _255
REMARK   92  A    between atoms: _255  and  _256
REMARK   93  A    between atoms: _255  and  _258
REMARK   94  A    between atoms: _258  and  _259
REMARK   95  A    between atoms: _264  and  _266
REMARK   96  A    between atoms: _266  and  _267
REMARK   97  A    between atoms: _266  and  _269
REMARK   98  A    between atoms: _269  and  _270
REMARK   99  A    between atoms: _270  and  _271
REMARK  100  A    between atoms: _274  and  _276
REMARK  101  A    between atoms: _276  and  _277
REMARK  102  A    between atoms: _276  and  _279
REMARK  103  A    between atoms: _279  and  _280
REMARK  104  A    between atoms: _283  and  _285
REMARK  105  A    between atoms: _285  and  _286
REMARK  106  A    between atoms: _285  and  _288
REMARK  107  A    between atoms: _288  and  _289
REMARK  108  A    between atoms: _290  and  ZN_582
REMARK  109  A    between atoms: _294  and  _296
REMARK  110  A    between atoms: _296  and  _297
REMARK  111  A    between atoms: _296  and  _299
REMARK  112  A    between atoms: _299  and  _300
REMARK  113  A    between atoms: _303  and  _305
REMARK  114  A    between atoms: _305  and  _306
REMARK  115  A    between atoms: _305  and  _308
REMARK  116  A    between atoms: _311  and  _313
REMARK  117  A    between atoms: _313  and  _314
REMARK  118  A    between atoms: _313  and  _316
REMARK  119  A    between atoms: _316  and  _317
REMARK  120  A    between atoms: _322  and  _324
REMARK  121  A    between atoms: _324  and  _325
REMARK  122  A    between atoms: _324  and  _327
REMARK  123  A    between atoms: _327  and  _328
REMARK  124  A    between atoms: _333  and  _334
REMARK  125  A    between atoms: _336  and  _338
REMARK  126  A    between atoms: _338  and  _339
REMARK  127  A    between atoms: _338  and  _341
REMARK  128  A    between atoms: _341  and  _342
REMARK  129  A    between atoms: _345  and  _347
REMARK  130  A    between atoms: _347  and  _348
REMARK  131  A    between atoms: _351  and  _353
REMARK  132  A    between atoms: _353  and  _354
REMARK  133  A    between atoms: _353  and  _356
REMARK  134  A    between atoms: _356  and  _357
REMARK  135  A    between atoms: _359  and  _361
REMARK  136  A    between atoms: _361  and  _362
REMARK  137  A    between atoms: _361  and  _364
REMARK  138  A    between atoms: _364  and  _365
REMARK  139  A    between atoms: _368  and  _370
REMARK  140  A    between atoms: _370  and  _371
REMARK  141  A    between atoms: _374  and  _376
REMARK  142  A    between atoms: _376  and  _377
REMARK  143  A    between atoms: _376  and  _379
REMARK  144  A    between atoms: _379  and  _380
REMARK  145  A    between atoms: _382  and  _384
REMARK  146  A    between atoms: _384  and  _385
REMARK  147  A    between atoms: _384  and  _387
REMARK  148  A    between atoms: _387  and  _388
REMARK  149  A    between atoms: _393  and  _395
REMARK  150  A    between atoms: _395  and  _396
REMARK  151  A    between atoms: _398  and  _400
REMARK  152  A    between atoms: _400  and  _401
REMARK  153  A    between atoms: _400  and  _403
REMARK  154  A    between atoms: _403  and  _404
REMARK  155  A    between atoms: _407  and  _409
REMARK  156  A    between atoms: _409  and  _410
REMARK  157  A    between atoms: _413  and  _415
REMARK  158  A    between atoms: _415  and  _416
REMARK  159  A    between atoms: _415  and  _418
REMARK  160  A    between atoms: _421  and  _423
REMARK  161  A    between atoms: _423  and  _424
REMARK  162  A    between atoms: _423  and  _426
REMARK  163  A    between atoms: _426  and  _427
REMARK  164  A    between atoms: _430  and  _432
REMARK  165  A    between atoms: _432  and  _433
REMARK  166  A    between atoms: _436  and  _438
REMARK  167  A    between atoms: _438  and  _439
REMARK  168  A    between atoms: _438  and  _441
REMARK  169  A    between atoms: _441  and  _442
REMARK  170  A    between atoms: _444  and  _446
REMARK  171  A    between atoms: _446  and  _447
REMARK  172  A    between atoms: _446  and  _449
REMARK  173  A    between atoms: _449  and  _450
REMARK  174  A    between atoms: _453  and  _455
REMARK  175  A    between atoms: _455  and  _456
REMARK  176  A    between atoms: _455  and  _458
REMARK  177  A    between atoms: _458  and  _459
REMARK  178  A    between atoms: _462  and  _464
REMARK  179  A    between atoms: _464  and  _465
REMARK  180  A    between atoms: _464  and  _467
REMARK  181  A    between atoms: _467  and  _468
REMARK  182  A    between atoms: _472  and  _473
REMARK  183  A    between atoms: _479  and  _480
REMARK  184  A    between atoms: _485  and  _487
REMARK  185  A    between atoms: _487  and  _488
REMARK  186  A    between atoms: _487  and  _490
REMARK  187  A    between atoms: _492  and  _494
REMARK  188  A    between atoms: _494  and  _495
REMARK  189  A    between atoms: _494  and  _497
REMARK  190  A    between atoms: _497  and  _498
REMARK  191  A    between atoms: _503  and  _505
REMARK  192  A    between atoms: _505  and  _506
REMARK  193  A    between atoms: _505  and  _508
REMARK  194  A    between atoms: _508  and  _509
REMARK  195  A    between atoms: _512  and  _514
REMARK  196  A    between atoms: _514  and  _515
REMARK  197  A    between atoms: _514  and  _517
REMARK  198  A    between atoms: _520  and  _522
REMARK  199  A    between atoms: _522  and  _523
REMARK  200  A    between atoms: _522  and  _525
REMARK  201  A    between atoms: _525  and  _526
REMARK  202  A    between atoms: _529  and  _531
REMARK  203  A    between atoms: _531  and  _532
REMARK  204  A    between atoms: _531  and  _534
REMARK  205  A    between atoms: _534  and  _535
REMARK  206  A    between atoms: _545  and  _547
REMARK  207  A    between atoms: _547  and  _548
REMARK  208  A    between atoms: _547  and  _550
REMARK  209  A    between atoms: _550  and  _551
REMARK  210  A    between atoms: _551  and  _552
REMARK  211  A    between atoms: _554  and  _556
REMARK  212  A    between atoms: _556  and  _557
REMARK  213  A    between atoms: _556  and  _559
REMARK  214  A    between atoms: _559  and  _560
REMARK  215  A    between atoms: _565  and  _567
REMARK  216  A    between atoms: _567  and  _568
REMARK  217  A    between atoms: _567  and  _570
REMARK  218  A    between atoms: _570  and  _571
REMARK  219  A    between atoms: _571  and  _572
REMARK  220  A    between atoms: _572  and  _573
REMARK                            x       y       z     vdW  Elec       q    Type
REMARK                         _______ _______ _______ _____ _____    ______ ____
ROOT
ATOM      1  CA  LEU A   3      26.281  -0.786   0.010  0.00  0.00    +0.149 C 
ENDROOT
BRANCH   1   3
ATOM      2  C   VAL A   2      25.278   1.305   0.776  0.00  0.00    +0.241 C 
ATOM      3  N   LEU A   3      26.334   0.533   0.606  0.00  0.00    -0.297 N 
ATOM      4  H   LEU A   3      27.259   0.892   0.918  0.00  0.00    +0.150 HD
ATOM      5  O   VAL A   2      24.149   1.006   0.318  0.00  0.00    -0.273 OA
BRANCH   2   6
ATOM      6  CA  VAL A   2      25.513   2.514   1.649  0.00  0.00    +0.148 C 
BRANCH   6   8
ATOM      7  C   THR A   1      25.906   4.669   0.583  0.00  0.00    +0.241 C 
ATOM      8  N   VAL A   2      25.049   3.776   1.081  0.00  0.00    -0.297 N 
ATOM      9  H   VAL A   2      24.030   3.983   1.064  0.00  0.00    +0.150 HD
ATOM     10  O   THR A   1      27.136   4.525   0.571  0.00  0.00    -0.274 OA
BRANCH   7  11
ATOM     11  CA  THR A   1      25.321   5.965   0.022  0.00  0.00    +0.172 C 
BRANCH  11  12
ATOM     12  N   THR A   1      23.918   6.209   0.451  0.00  0.00    -0.236 NA
ATOM     13  H   THR A   1      23.662   6.167   1.458  0.00  0.00    +0.142 HD
ENDBRANCH  11  12
BRANCH  11  14
ATOM     14  CB  THR A   1      26.230   7.040   0.602  0.00  0.00    +0.135 C 
ATOM     15  CG2 THR A   1      25.871   8.372  -0.126  0.00  0.00    +0.034 C 
BRANCH  14  16
ATOM     16  OG1 THR A   1      25.972   7.204   1.993  0.00  0.00    -0.383 OA
ATOM     17  HG1 THR A   1      26.569   7.905   2.358  0.00  0.00    +0.210 HD
ENDBRANCH  14  16
ENDBRANCH  11  14
ENDBRANCH   7  11
ENDBRANCH   6   8
BRANCH   6  18
ATOM     18  CB  VAL A   2      24.751   2.282   3.004  0.00  0.00    +0.027 C 
ATOM     19  CG2 VAL A   2      24.993   3.444   4.049  0.00  0.00    +0.002 C 
ATOM     20  CG1 VAL A   2      25.119   0.927   3.562  0.00  0.00    +0.002 C 
ENDBRANCH   6  18
ENDBRANCH   2   6
ENDBRANCH   1   3
BRANCH   1  21
ATOM     21  C   LEU A   3      26.064  -1.768   1.177  0.00  0.00    +0.241 C 
ATOM     22  O   LEU A   3      26.937  -1.968   2.021  0.00  0.00    -0.273 OA
ATOM     23  N   TRP A   4      24.849  -2.326   1.251  0.00  0.00    -0.298 N 
ATOM     24  H   TRP A   4      24.141  -2.079   0.530  0.00  0.00    +0.150 HD
BRANCH  23  25
ATOM     25  CA  TRP A   4      24.477  -3.274   2.312  0.00  0.00    +0.141 C 
BRANCH  25  26
ATOM     26  C   TRP A   4      24.871  -4.660   2.062  0.00  0.00    +0.227 C 
ATOM     27  O   TRP A   4      24.617  -5.169   0.923  0.00  0.00    -0.286 OA
ENDBRANCH  25  26
BRANCH  25  28
ATOM     28  CB  TRP A   4      22.973  -3.224   2.573  0.00  0.00    +0.056 C 
BRANCH  28  29
ATOM     29  CG  TRP A   4      22.607  -2.013   3.392  0.00  0.00    -0.002 A 
ATOM     30  CD2 TRP A   4      22.726  -1.850   4.865  0.00  0.00    +0.013 A 
ATOM     31  CE3 TRP A   4      23.165  -2.682   5.918  0.00  0.00    +0.001 A 
ATOM     32  CZ3 TRP A   4      23.149  -2.181   7.238  0.00  0.00    +0.000 A 
ATOM     33  CH2 TRP A   4      22.761  -0.817   7.493  0.00  0.00    +0.001 A 
ATOM     34  CZ2 TRP A   4      22.289   0.029   6.479  0.00  0.00    +0.017 A 
ATOM     35  CE2 TRP A   4      22.279  -0.496   5.176  0.00  0.00    +0.056 A 
ATOM     36  NE1 TRP A   4      21.934   0.077   3.957  0.00  0.00    -0.352 N 
ATOM     37  HE1 TRP A   4      21.574   1.046   3.848  0.00  0.00    +0.166 HD
ATOM     38  CD1 TRP A   4      22.124  -0.778   2.937  0.00  0.00    +0.068 A 
ENDBRANCH  28  29
ENDBRANCH  25  28
ENDBRANCH  23  25
ENDBRANCH   1  21
BRANCH   1  39
ATOM     39  CB  LEU A   3      27.571  -1.109  -0.758  0.00  0.00    +0.029 C 
BRANCH  39  40
ATOM     40  CG  LEU A   3      27.433  -2.443  -1.486  0.00  0.00    +0.002 C 
ATOM     41  CD2 LEU A   3      28.822  -2.791  -1.892  0.00  0.00    +0.000 C 
ATOM     42  CD1 LEU A   3      26.437  -2.328  -2.682  0.00  0.00    +0.000 C 
ENDBRANCH  39  40
ENDBRANCH   1  39
TORSDOF 15
REMARK  Name = ../refined-set-2016/4qj0/4qj0_pocket.pdb
REMARK  220 active torsions:
REMARK  status: ('A' for Active; 'I' for Inactive)
REMARK    1  A    between atoms: _1  and  _5
REMARK    2  A    between atoms: _5  and  _6
REMARK    3  A    between atoms: _5  and  _8
REMARK    4  A    between atoms: _8  and  _9
REMARK    5  A    between atoms: _9  and  _10
REMARK    6  A    between atoms: _10  and  _11
REMARK    7  A    between atoms: _11  and  _12
REMARK    8  A    between atoms: _16  and  _18
REMARK    9  A    between atoms: _18  and  _19
REMARK   10  A    between atoms: _18  and  _21
REMARK   11  A    between atoms: _21  and  _22
REMARK   12  A    between atoms: _32  and  _34
REMARK   13  A    between atoms: _34  and  _35
REMARK   14  A    between atoms: _34  and  _37
REMARK   15  A    between atoms: _37  and  _38
REMARK   16  A    between atoms: _43  and  _44
REMARK   17  A    between atoms: _46  and  _48
REMARK   18  A    between atoms: _48  and  _49
REMARK   19  A    between atoms: _48  and  _51
REMARK   20  A    between atoms: _51  and  _52
REMARK   21  A    between atoms: _57  and  _58
REMARK   22  A    between atoms: _60  and  _62
REMARK   23  A    between atoms: _62  and  _63
REMARK   24  A    between atoms: _62  and  _65
REMARK   25  A    between atoms: _65  and  _66
REMARK   26  A    between atoms: _69  and  _70
REMARK   27  A    between atoms: _75  and  _77
REMARK   28  A    between atoms: _77  and  _78
REMARK   29  A    between atoms: _77  and  _80
REMARK   30  A    between atoms: _80  and  _81
REMARK   31  A    between atoms: _84  and  _86
REMARK   32  A    between atoms: _86  and  _87
REMARK   33  A    between atoms: _86  and  _89
REMARK   34  A    between atoms: _89  and  _90
REMARK   35  A    between atoms: _95  and  _97
REMARK   36  A    between atoms: _97  and  _98
REMARK   37  A    between atoms: _100  and  _102
REMARK   38  A    between atoms: _102  and  _103
REMARK   39  A    between atoms: _102  and  _105
REMARK   40  A    between atoms: _105  and  _106
REMARK   41  A    between atoms: _111  and  _113
REMARK   42  A    between atoms: _113  and  _114
REMARK   43  A    between atoms: _113  and  _116
REMARK   44  A    between atoms: _116  and  _117
REMARK   45  A    between atoms: _119  and  _121
REMARK   46  A    between atoms: _121  and  _122
REMARK   47  A    between atoms: _121  and  _124
REMARK   48  A    between atoms: _127  and  _129
REMARK   49  A    between atoms: _129  and  _130
REMARK   50  A    between atoms: _129  and  _132
REMARK   51  A    between atoms: _132  and  _133
REMARK   52  A    between atoms: _133  and  _134
REMARK   53  A    between atoms: _134  and  _135
REMARK   54  A    between atoms: _135  and  _136
REMARK   55  A    between atoms: _140  and  _142
REMARK   56  A    between atoms: _142  and  _143
REMARK   57  A    between atoms: _142  and  _145
REMARK   58  A    between atoms: _145  and  _146
REMARK   59  A    between atoms: _149  and  _151
REMARK   60  A    between atoms: _151  and  _152
REMARK   61  A    between atoms: _151  and  _154
REMARK   62  A    between atoms: _154  and  _155
REMARK   63  A    between atoms: _160  and  _162
REMARK   64  A    between atoms: _162  and  _163
REMARK   65  A    between atoms: _166  and  _168
REMARK   66  A    between atoms: _168  and  _169
REMARK   67  A    between atoms: _168  and  _171
REMARK   68  A    between atoms: _171  and  _172
REMARK   69  A    between atoms: _175  and  _177
REMARK   70  A    between atoms: _177  and  _178
REMARK   71  A    between atoms: _177  and  _180
REMARK   72  A    between atoms: _180  and  _181
REMARK   73  A    between atoms: _181  and  _182
REMARK   74  A    between atoms: _187  and  _189
REMARK   75  A    between atoms: _189  and  _190
REMARK   76  A    between atoms: _189  and  _192
REMARK   77  A    between atoms: _192  and  _193
REMARK   78  A    between atoms: _196  and  _198
REMARK   79  A    between atoms: _209  and  _212
REMARK   80  A    between atoms: _212  and  _213
REMARK   81  A    between atoms: _218  and  _219
REMARK   82  A    between atoms: _227  and  _229
REMARK   83  A    between atoms: _229  and  _230
REMARK   84  A    between atoms: _229  and  _232
REMARK   85  A    between atoms: _232  and  _233
REMARK   86  A    between atoms: _243  and  _245
REMARK   87  A    between atoms: _245  and  _246
REMARK   88  A    between atoms: _245  and  _248
REMARK   89  A    between atoms: _248  and  _249
REMARK   90  A    between atoms: _249  and  _250
REMARK   91  A    between atoms: _253  and  _255
REMARK   92  A    between atoms: _255  and  _256
REMARK   93  A    between atoms: _255  and  _258
REMARK   94  A    between atoms: _258  and  _259
REMARK   95  A    between atoms: _264  and  _266
REMARK   96  A    between atoms: _266  and  _267
REMARK   97  A    between atoms: _266  and  _269
REMARK   98  A    between atoms: _269  and  _270
REMARK   99  A    between atoms: _270  and  _271
REMARK  100  A    between atoms: _274  and  _276
REMARK  101  A    between atoms: _276  and  _277
REMARK  102  A    between atoms: _276  and  _279
REMARK  103  A    between atoms: _279  and  _280
REMARK  104  A    between atoms: _283  and  _285
REMARK  105  A    between atoms: _285  and  _286
REMARK  106  A    between atoms: _285  and  _288
REMARK  107  A    between atoms: _288  and  _289
REMARK  108  A    between atoms: _290  and  ZN_582
REMARK  109  A    between atoms: _294  and  _296
REMARK  110  A    between atoms: _296  and  _297
REMARK  111  A    between atoms: _296  and  _299
REMARK  112  A    between atoms: _299  and  _300
REMARK  113  A    between atoms: _303  and  _305
REMARK  114  A    between atoms: _305  and  _306
REMARK  115  A    between atoms: _305  and  _308
REMARK  116  A    between atoms: _311  and  _313
REMARK  117  A    between atoms: _313  and  _314
REMARK  118  A    between atoms: _313  and  _316
REMARK  119  A    between atoms: _316  and  _317
REMARK  120  A    between atoms: _322  and  _324
REMARK  121  A    between atoms: _324  and  _325
REMARK  122  A    between atoms: _324  and  _327
REMARK  123  A    between atoms: _327  and  _328
REMARK  124  A    between atoms: _333  and  _334
REMARK  125  A    between atoms: _336  and  _338
REMARK  126  A    between atoms: _338  and  _339
REMARK  127  A    between atoms: _338  and  _341
REMARK  128  A    between atoms: _341  and  _342
REMARK  129  A    between atoms: _345  and  _347
REMARK  130  A    between atoms: _347  and  _348
REMARK  131  A    between atoms: _351  and  _353
REMARK  132  A    between atoms: _353  and  _354
REMARK  133  A    between atoms: _353  and  _356
REMARK  134  A    between atoms: _356  and  _357
REMARK  135  A    between atoms: _359  and  _361
REMARK  136  A    between atoms: _361  and  _362
REMARK  137  A    between atoms: _361  and  _364
REMARK  138  A    between atoms: _364  and  _365
REMARK  139  A    between atoms: _368  and  _370
REMARK  140  A    between atoms: _370  and  _371
REMARK  141  A    between atoms: _374  and  _376
REMARK  142  A    between atoms: _376  and  _377
REMARK  143  A    between atoms: _376  and  _379
REMARK  144  A    between atoms: _379  and  _380
REMARK  145  A    between atoms: _382  and  _384
REMARK  146  A    between atoms: _384  and  _385
REMARK  147  A    between atoms: _384  and  _387
REMARK  148  A    between atoms: _387  and  _388
REMARK  149  A    between atoms: _393  and  _395
REMARK  150  A    between atoms: _395  and  _396
REMARK  151  A    between atoms: _398  and  _400
REMARK  152  A    between atoms: _400  and  _401
REMARK  153  A    between atoms: _400  and  _403
REMARK  154  A    between atoms: _403  and  _404
REMARK  155  A    between atoms: _407  and  _409
REMARK  156  A    between atoms: _409  and  _410
REMARK  157  A    between atoms: _413  and  _415
REMARK  158  A    between atoms: _415  and  _416
REMARK  159  A    between atoms: _415  and  _418
REMARK  160  A    between atoms: _421  and  _423
REMARK  161  A    between atoms: _423  and  _424
REMARK  162  A    between atoms: _423  and  _426
REMARK  163  A    between atoms: _426  and  _427
REMARK  164  A    between atoms: _430  and  _432
REMARK  165  A    between atoms: _432  and  _433
REMARK  166  A    between atoms: _436  and  _438
REMARK  167  A    between atoms: _438  and  _439
REMARK  168  A    between atoms: _438  and  _441
REMARK  169  A    between atoms: _441  and  _442
REMARK  170  A    between atoms: _444  and  _446
REMARK  171  A    between atoms: _446  and  _447
REMARK  172  A    between atoms: _446  and  _449
REMARK  173  A    between atoms: _449  and  _450
REMARK  174  A    between atoms: _453  and  _455
REMARK  175  A    between atoms: _455  and  _456
REMARK  176  A    between atoms: _455  and  _458
REMARK  177  A    between atoms: _458  and  _459
REMARK  178  A    between atoms: _462  and  _464
REMARK  179  A    between atoms: _464  and  _465
REMARK  180  A    between atoms: _464  and  _467
REMARK  181  A    between atoms: _467  and  _468
REMARK  182  A    between atoms: _472  and  _473
REMARK  183  A    between atoms: _479  and  _480
REMARK  184  A    between atoms: _485  and  _487
REMARK  185  A    between atoms: _487  and  _488
REMARK  186  A    between atoms: _487  and  _490
REMARK  187  A    between atoms: _492  and  _494
REMARK  188  A    between atoms: _494  and  _495
REMARK  189  A    between atoms: _494  and  _497
REMARK  190  A    between atoms: _497  and  _498
REMARK  191  A    between atoms: _503  and  _505
REMARK  192  A    between atoms: _505  and  _506
REMARK  193  A    between atoms: _505  and  _508
REMARK  194  A    between atoms: _508  and  _509
REMARK  195  A    between atoms: _512  and  _514
REMARK  196  A    between atoms: _514  and  _515
REMARK  197  A    between atoms: _514  and  _517
REMARK  198  A    between atoms: _520  and  _522
REMARK  199  A    between atoms: _522  and  _523
REMARK  200  A    between atoms: _522  and  _525
REMARK  201  A    between atoms: _525  and  _526
REMARK  202  A    between atoms: _529  and  _531
REMARK  203  A    between atoms: _531  and  _532
REMARK  204  A    between atoms: _531  and  _534
REMARK  205  A    between atoms: _534  and  _535
REMARK  206  A    between atoms: _545  and  _547
REMARK  207  A    between atoms: _547  and  _548
REMARK  208  A    between atoms: _547  and  _550
REMARK  209  A    between atoms: _550  and  _551
REMARK  210  A    between atoms: _551  and  _552
REMARK  211  A    between atoms: _554  and  _556
REMARK  212  A    between atoms: _556  and  _557
REMARK  213  A    between atoms: _556  and  _559
REMARK  214  A    between atoms: _559  and  _560
REMARK  215  A    between atoms: _565  and  _567
REMARK  216  A    between atoms: _567  and  _568
REMARK  217  A    between atoms: _567  and  _570
REMARK  218  A    between atoms: _570  and  _571
REMARK  219  A    between atoms: _571  and  _572
REMARK  220  A    between atoms: _572  and  _573
REMARK                            x       y       z     vdW  Elec       q    Type
REMARK                         _______ _______ _______ _____ _____    ______ ____
ROOT
ATOM      1  CA  MET A   1      17.469   3.152  25.249  0.00  0.00    +0.134 C 
ENDROOT
BRANCH   1   2
ATOM      2  N   MET A   1      17.135   3.338  26.659  0.00  0.00    -0.239 NA
ATOM      3  H   MET A   1      17.780   2.997  27.400  0.00  0.00    +0.142 HD
ENDBRANCH   1   2
BRANCH   1   4
ATOM      4  C   MET A   1      16.929   1.793  24.798  0.00  0.00    +0.224 C 
ATOM      5  O   MET A   1      17.581   0.720  25.036  0.00  0.00    -0.287 OA
ENDBRANCH   1   4
BRANCH   1   6
ATOM      6  CB  MET A   1      18.989   3.227  25.032  0.00  0.00    +0.037 C 
BRANCH   6   7
ATOM      7  CG  MET A   1      19.405   3.158  23.543  0.00  0.00    +0.059 C 
BRANCH   7   8
ATOM      8  SD  MET A   1      21.215   3.109  23.401  0.00  0.00    -0.139 S 
ATOM      9  CE  MET A   1      21.464   4.831  23.866  0.00  0.00    +0.069 C 
ENDBRANCH   7   8
ENDBRANCH   6   7
ENDBRANCH   1   6
TORSDOF 5
REMARK  Name = ../refined-set-2016/4qj0/4qj0_pocket.pdb
REMARK  220 active torsions:
REMARK  status: ('A' for Active; 'I' for Inactive)
REMARK    1  A    between atoms: _1  and  _5
REMARK    2  A    between atoms: _5  and  _6
REMARK    3  A    between atoms: _5  and  _8
REMARK    4  A    between atoms: _8  and  _9
REMARK    5  A    between atoms: _9  and  _10
REMARK    6  A    between atoms: _10  and  _11
REMARK    7  A    between atoms: _11  and  _12
REMARK    8  A    between atoms: _16  and  _18
REMARK    9  A    between atoms: _18  and  _19
REMARK   10  A    between atoms: _18  and  _21
REMARK   11  A    between atoms: _21  and  _22
REMARK   12  A    between atoms: _32  and  _34
REMARK   13  A    between atoms: _34  and  _35
REMARK   14  A    between atoms: _34  and  _37
REMARK   15  A    between atoms: _37  and  _38
REMARK   16  A    between atoms: _43  and  _44
REMARK   17  A    between atoms: _46  and  _48
REMARK   18  A    between atoms: _48  and  _49
REMARK   19  A    between atoms: _48  and  _51
REMARK   20  A    between atoms: _51  and  _52
REMARK   21  A    between atoms: _57  and  _58
REMARK   22  A    between atoms: _60  and  _62
REMARK   23  A    between atoms: _62  and  _63
REMARK   24  A    between atoms: _62  and  _65
REMARK   25  A    between atoms: _65  and  _66
REMARK   26  A    between atoms: _69  and  _70
REMARK   27  A    between atoms: _75  and  _77
REMARK   28  A    between atoms: _77  and  _78
REMARK   29  A    between atoms: _77  and  _80
REMARK   30  A    between atoms: _80  and  _81
REMARK   31  A    between atoms: _84  and  _86
REMARK   32  A    between atoms: _86  and  _87
REMARK   33  A    between atoms: _86  and  _89
REMARK   34  A    between atoms: _89  and  _90
REMARK   35  A    between atoms: _95  and  _97
REMARK   36  A    between atoms: _97  and  _98
REMARK   37  A    between atoms: _100  and  _102
REMARK   38  A    between atoms: _102  and  _103
REMARK   39  A    between atoms: _102  and  _105
REMARK   40  A    between atoms: _105  and  _106
REMARK   41  A    between atoms: _111  and  _113
REMARK   42  A    between atoms: _113  and  _114
REMARK   43  A    between atoms: _113  and  _116
REMARK   44  A    between atoms: _116  and  _117
REMARK   45  A    between atoms: _119  and  _121
REMARK   46  A    between atoms: _121  and  _122
REMARK   47  A    between atoms: _121  and  _124
REMARK   48  A    between atoms: _127  and  _129
REMARK   49  A    between atoms: _129  and  _130
REMARK   50  A    between atoms: _129  and  _132
REMARK   51  A    between atoms: _132  and  _133
REMARK   52  A    between atoms: _133  and  _134
REMARK   53  A    between atoms: _134  and  _135
REMARK   54  A    between atoms: _135  and  _136
REMARK   55  A    between atoms: _140  and  _142
REMARK   56  A    between atoms: _142  and  _143
REMARK   57  A    between atoms: _142  and  _145
REMARK   58  A    between atoms: _145  and  _146
REMARK   59  A    between atoms: _149  and  _151
REMARK   60  A    between atoms: _151  and  _152
REMARK   61  A    between atoms: _151  and  _154
REMARK   62  A    between atoms: _154  and  _155
REMARK   63  A    between atoms: _160  and  _162
REMARK   64  A    between atoms: _162  and  _163
REMARK   65  A    between atoms: _166  and  _168
REMARK   66  A    between atoms: _168  and  _169
REMARK   67  A    between atoms: _168  and  _171
REMARK   68  A    between atoms: _171  and  _172
REMARK   69  A    between atoms: _175  and  _177
REMARK   70  A    between atoms: _177  and  _178
REMARK   71  A    between atoms: _177  and  _180
REMARK   72  A    between atoms: _180  and  _181
REMARK   73  A    between atoms: _181  and  _182
REMARK   74  A    between atoms: _187  and  _189
REMARK   75  A    between atoms: _189  and  _190
REMARK   76  A    between atoms: _189  and  _192
REMARK   77  A    between atoms: _192  and  _193
REMARK   78  A    between atoms: _196  and  _198
REMARK   79  A    between atoms: _209  and  _212
REMARK   80  A    between atoms: _212  and  _213
REMARK   81  A    between atoms: _218  and  _219
REMARK   82  A    between atoms: _227  and  _229
REMARK   83  A    between atoms: _229  and  _230
REMARK   84  A    between atoms: _229  and  _232
REMARK   85  A    between atoms: _232  and  _233
REMARK   86  A    between atoms: _243  and  _245
REMARK   87  A    between atoms: _245  and  _246
REMARK   88  A    between atoms: _245  and  _248
REMARK   89  A    between atoms: _248  and  _249
REMARK   90  A    between atoms: _249  and  _250
REMARK   91  A    between atoms: _253  and  _255
REMARK   92  A    between atoms: _255  and  _256
REMARK   93  A    between atoms: _255  and  _258
REMARK   94  A    between atoms: _258  and  _259
REMARK   95  A    between atoms: _264  and  _266
REMARK   96  A    between atoms: _266  and  _267
REMARK   97  A    between atoms: _266  and  _269
REMARK   98  A    between atoms: _269  and  _270
REMARK   99  A    between atoms: _270  and  _271
REMARK  100  A    between atoms: _274  and  _276
REMARK  101  A    between atoms: _276  and  _277
REMARK  102  A    between atoms: _276  and  _279
REMARK  103  A    between atoms: _279  and  _280
REMARK  104  A    between atoms: _283  and  _285
REMARK  105  A    between atoms: _285  and  _286
REMARK  106  A    between atoms: _285  and  _288
REMARK  107  A    between atoms: _288  and  _289
REMARK  108  A    between atoms: _290  and  ZN_582
REMARK  109  A    between atoms: _294  and  _296
REMARK  110  A    between atoms: _296  and  _297
REMARK  111  A    between atoms: _296  and  _299
REMARK  112  A    between atoms: _299  and  _300
REMARK  113  A    between atoms: _303  and  _305
REMARK  114  A    between atoms: _305  and  _306
REMARK  115  A    between atoms: _305  and  _308
REMARK  116  A    between atoms: _311  and  _313
REMARK  117  A    between atoms: _313  and  _314
REMARK  118  A    between atoms: _313  and  _316
REMARK  119  A    between atoms: _316  and  _317
REMARK  120  A    between atoms: _322  and  _324
REMARK  121  A    between atoms: _324  and  _325
REMARK  122  A    between atoms: _324  and  _327
REMARK  123  A    between atoms: _327  and  _328
REMARK  124  A    between atoms: _333  and  _334
REMARK  125  A    between atoms: _336  and  _338
REMARK  126  A    between atoms: _338  and  _339
REMARK  127  A    between atoms: _338  and  _341
REMARK  128  A    between atoms: _341  and  _342
REMARK  129  A    between atoms: _345  and  _347
REMARK  130  A    between atoms: _347  and  _348
REMARK  131  A    between atoms: _351  and  _353
REMARK  132  A    between atoms: _353  and  _354
REMARK  133  A    between atoms: _353  and  _356
REMARK  134  A    between atoms: _356  and  _357
REMARK  135  A    between atoms: _359  and  _361
REMARK  136  A    between atoms: _361  and  _362
REMARK  137  A    between atoms: _361  and  _364
REMARK  138  A    between atoms: _364  and  _365
REMARK  139  A    between atoms: _368  and  _370
REMARK  140  A    between atoms: _370  and  _371
REMARK  141  A    between atoms: _374  and  _376
REMARK  142  A    between atoms: _376  and  _377
REMARK  143  A    between atoms: _376  and  _379
REMARK  144  A    between atoms: _379  and  _380
REMARK  145  A    between atoms: _382  and  _384
REMARK  146  A    between atoms: _384  and  _385
REMARK  147  A    between atoms: _384  and  _387
REMARK  148  A    between atoms: _387  and  _388
REMARK  149  A    between atoms: _393  and  _395
REMARK  150  A    between atoms: _395  and  _396
REMARK  151  A    between atoms: _398  and  _400
REMARK  152  A    between atoms: _400  and  _401
REMARK  153  A    between atoms: _400  and  _403
REMARK  154  A    between atoms: _403  and  _404
REMARK  155  A    between atoms: _407  and  _409
REMARK  156  A    between atoms: _409  and  _410
REMARK  157  A    between atoms: _413  and  _415
REMARK  158  A    between atoms: _415  and  _416
REMARK  159  A    between atoms: _415  and  _418
REMARK  160  A    between atoms: _421  and  _423
REMARK  161  A    between atoms: _423  and  _424
REMARK  162  A    between atoms: _423  and  _426
REMARK  163  A    between atoms: _426  and  _427
REMARK  164  A    between atoms: _430  and  _432
REMARK  165  A    between atoms: _432  and  _433
REMARK  166  A    between atoms: _436  and  _438
REMARK  167  A    between atoms: _438  and  _439
REMARK  168  A    between atoms: _438  and  _441
REMARK  169  A    between atoms: _441  and  _442
REMARK  170  A    between atoms: _444  and  _446
REMARK  171  A    between atoms: _446  and  _447
REMARK  172  A    between atoms: _446  and  _449
REMARK  173  A    between atoms: _449  and  _450
REMARK  174  A    between atoms: _453  and  _455
REMARK  175  A    between atoms: _455  and  _456
REMARK  176  A    between atoms: _455  and  _458
REMARK  177  A    between atoms: _458  and  _459
REMARK  178  A    between atoms: _462  and  _464
REMARK  179  A    between atoms: _464  and  _465
REMARK  180  A    between atoms: _464  and  _467
REMARK  181  A    between atoms: _467  and  _468
REMARK  182  A    between atoms: _472  and  _473
REMARK  183  A    between atoms: _479  and  _480
REMARK  184  A    between atoms: _485  and  _487
REMARK  185  A    between atoms: _487  and  _488
REMARK  186  A    between atoms: _487  and  _490
REMARK  187  A    between atoms: _492  and  _494
REMARK  188  A    between atoms: _494  and  _495
REMARK  189  A    between atoms: _494  and  _497
REMARK  190  A    between atoms: _497  and  _498
REMARK  191  A    between atoms: _503  and  _505
REMARK  192  A    between atoms: _505  and  _506
REMARK  193  A    between atoms: _505  and  _508
REMARK  194  A    between atoms: _508  and  _509
REMARK  195  A    between atoms: _512  and  _514
REMARK  196  A    between atoms: _514  and  _515
REMARK  197  A    between atoms: _514  and  _517
REMARK  198  A    between atoms: _520  and  _522
REMARK  199  A    between atoms: _522  and  _523
REMARK  200  A    between atoms: _522  and  _525
REMARK  201  A    between atoms: _525  and  _526
REMARK  202  A    between atoms: _529  and  _531
REMARK  203  A    between atoms: _531  and  _532
REMARK  204  A    between atoms: _531  and  _534
REMARK  205  A    between atoms: _534  and  _535
REMARK  206  A    between atoms: _545  and  _547
REMARK  207  A    between atoms: _547  and  _548
REMARK  208  A    between atoms: _547  and  _550
REMARK  209  A    between atoms: _550  and  _551
REMARK  210  A    between atoms: _551  and  _552
REMARK  211  A    between atoms: _554  and  _556
REMARK  212  A    between atoms: _556  and  _557
REMARK  213  A    between atoms: _556  and  _559
REMARK  214  A    between atoms: _559  and  _560
REMARK  215  A    between atoms: _565  and  _567
REMARK  216  A    between atoms: _567  and  _568
REMARK  217  A    between atoms: _567  and  _570
REMARK  218  A    between atoms: _570  and  _571
REMARK  219  A    between atoms: _571  and  _572
REMARK  220  A    between atoms: _572  and  _573
REMARK                            x       y       z     vdW  Elec       q    Type
REMARK                         _______ _______ _______ _____ _____    ______ ____
ROOT
ATOM      1  CB  ASN A   1      17.633   2.307  19.289  0.00  0.00    +0.110 C 
ENDROOT
BRANCH   1   2
ATOM      2  CG  ASN A   1      18.488   1.080  19.629  0.00  0.00    +0.221 C 
ATOM      3  ND2 ASN A   1      19.788   1.365  19.922  0.00  0.00    -0.329 N 
ATOM      4 HD21 ASN A   1      20.437   0.602  20.203  0.00  0.00    +0.145 HD
ATOM      5 HD22 ASN A   1      20.131   2.345  19.865  0.00  0.00    +0.145 HD
ATOM      6  OD1 ASN A   1      18.016  -0.087  19.681  0.00  0.00    -0.275 OA
ENDBRANCH   1   2
BRANCH   1   7
ATOM      7  CA  ASN A   1      16.357   1.949  18.517  0.00  0.00    +0.142 C 
BRANCH   7   8
ATOM      8  N   ASN A   1      15.514   1.045  19.243  0.00  0.00    -0.239 NA
ATOM      9  H   ASN A   1      15.952   0.262  19.769  0.00  0.00    +0.142 HD
ENDBRANCH   7   8
BRANCH   7  10
ATOM     10  C   ASN A   1      16.631   1.397  17.131  0.00  0.00    +0.225 C 
ATOM     11  O   ASN A   1      17.801   1.149  16.745  0.00  0.00    -0.287 OA
ENDBRANCH   7  10
ENDBRANCH   1   7
TORSDOF 4
REMARK  Name = ../refined-set-2016/4qj0/4qj0_pocket.pdb
REMARK  220 active torsions:
REMARK  status: ('A' for Active; 'I' for Inactive)
REMARK    1  A    between atoms: _1  and  _5
REMARK    2  A    between atoms: _5  and  _6
REMARK    3  A    between atoms: _5  and  _8
REMARK    4  A    between atoms: _8  and  _9
REMARK    5  A    between atoms: _9  and  _10
REMARK    6  A    between atoms: _10  and  _11
REMARK    7  A    between atoms: _11  and  _12
REMARK    8  A    between atoms: _16  and  _18
REMARK    9  A    between atoms: _18  and  _19
REMARK   10  A    between atoms: _18  and  _21
REMARK   11  A    between atoms: _21  and  _22
REMARK   12  A    between atoms: _32  and  _34
REMARK   13  A    between atoms: _34  and  _35
REMARK   14  A    between atoms: _34  and  _37
REMARK   15  A    between atoms: _37  and  _38
REMARK   16  A    between atoms: _43  and  _44
REMARK   17  A    between atoms: _46  and  _48
REMARK   18  A    between atoms: _48  and  _49
REMARK   19  A    between atoms: _48  and  _51
REMARK   20  A    between atoms: _51  and  _52
REMARK   21  A    between atoms: _57  and  _58
REMARK   22  A    between atoms: _60  and  _62
REMARK   23  A    between atoms: _62  and  _63
REMARK   24  A    between atoms: _62  and  _65
REMARK   25  A    between atoms: _65  and  _66
REMARK   26  A    between atoms: _69  and  _70
REMARK   27  A    between atoms: _75  and  _77
REMARK   28  A    between atoms: _77  and  _78
REMARK   29  A    between atoms: _77  and  _80
REMARK   30  A    between atoms: _80  and  _81
REMARK   31  A    between atoms: _84  and  _86
REMARK   32  A    between atoms: _86  and  _87
REMARK   33  A    between atoms: _86  and  _89
REMARK   34  A    between atoms: _89  and  _90
REMARK   35  A    between atoms: _95  and  _97
REMARK   36  A    between atoms: _97  and  _98
REMARK   37  A    between atoms: _100  and  _102
REMARK   38  A    between atoms: _102  and  _103
REMARK   39  A    between atoms: _102  and  _105
REMARK   40  A    between atoms: _105  and  _106
REMARK   41  A    between atoms: _111  and  _113
REMARK   42  A    between atoms: _113  and  _114
REMARK   43  A    between atoms: _113  and  _116
REMARK   44  A    between atoms: _116  and  _117
REMARK   45  A    between atoms: _119  and  _121
REMARK   46  A    between atoms: _121  and  _122
REMARK   47  A    between atoms: _121  and  _124
REMARK   48  A    between atoms: _127  and  _129
REMARK   49  A    between atoms: _129  and  _130
REMARK   50  A    between atoms: _129  and  _132
REMARK   51  A    between atoms: _132  and  _133
REMARK   52  A    between atoms: _133  and  _134
REMARK   53  A    between atoms: _134  and  _135
REMARK   54  A    between atoms: _135  and  _136
REMARK   55  A    between atoms: _140  and  _142
REMARK   56  A    between atoms: _142  and  _143
REMARK   57  A    between atoms: _142  and  _145
REMARK   58  A    between atoms: _145  and  _146
REMARK   59  A    between atoms: _149  and  _151
REMARK   60  A    between atoms: _151  and  _152
REMARK   61  A    between atoms: _151  and  _154
REMARK   62  A    between atoms: _154  and  _155
REMARK   63  A    between atoms: _160  and  _162
REMARK   64  A    between atoms: _162  and  _163
REMARK   65  A    between atoms: _166  and  _168
REMARK   66  A    between atoms: _168  and  _169
REMARK   67  A    between atoms: _168  and  _171
REMARK   68  A    between atoms: _171  and  _172
REMARK   69  A    between atoms: _175  and  _177
REMARK   70  A    between atoms: _177  and  _178
REMARK   71  A    between atoms: _177  and  _180
REMARK   72  A    between atoms: _180  and  _181
REMARK   73  A    between atoms: _181  and  _182
REMARK   74  A    between atoms: _187  and  _189
REMARK   75  A    between atoms: _189  and  _190
REMARK   76  A    between atoms: _189  and  _192
REMARK   77  A    between atoms: _192  and  _193
REMARK   78  A    between atoms: _196  and  _198
REMARK   79  A    between atoms: _209  and  _212
REMARK   80  A    between atoms: _212  and  _213
REMARK   81  A    between atoms: _218  and  _219
REMARK   82  A    between atoms: _227  and  _229
REMARK   83  A    between atoms: _229  and  _230
REMARK   84  A    between atoms: _229  and  _232
REMARK   85  A    between atoms: _232  and  _233
REMARK   86  A    between atoms: _243  and  _245
REMARK   87  A    between atoms: _245  and  _246
REMARK   88  A    between atoms: _245  and  _248
REMARK   89  A    between atoms: _248  and  _249
REMARK   90  A    between atoms: _249  and  _250
REMARK   91  A    between atoms: _253  and  _255
REMARK   92  A    between atoms: _255  and  _256
REMARK   93  A    between atoms: _255  and  _258
REMARK   94  A    between atoms: _258  and  _259
REMARK   95  A    between atoms: _264  and  _266
REMARK   96  A    between atoms: _266  and  _267
REMARK   97  A    between atoms: _266  and  _269
REMARK   98  A    between atoms: _269  and  _270
REMARK   99  A    between atoms: _270  and  _271
REMARK  100  A    between atoms: _274  and  _276
REMARK  101  A    between atoms: _276  and  _277
REMARK  102  A    between atoms: _276  and  _279
REMARK  103  A    between atoms: _279  and  _280
REMARK  104  A    between atoms: _283  and  _285
REMARK  105  A    between atoms: _285  and  _286
REMARK  106  A    between atoms: _285  and  _288
REMARK  107  A    between atoms: _288  and  _289
REMARK  108  A    between atoms: _290  and  ZN_582
REMARK  109  A    between atoms: _294  and  _296
REMARK  110  A    between atoms: _296  and  _297
REMARK  111  A    between atoms: _296  and  _299
REMARK  112  A    between atoms: _299  and  _300
REMARK  113  A    between atoms: _303  and  _305
REMARK  114  A    between atoms: _305  and  _306
REMARK  115  A    between atoms: _305  and  _308
REMARK  116  A    between atoms: _311  and  _313
REMARK  117  A    between atoms: _313  and  _314
REMARK  118  A    between atoms: _313  and  _316
REMARK  119  A    between atoms: _316  and  _317
REMARK  120  A    between atoms: _322  and  _324
REMARK  121  A    between atoms: _324  and  _325
REMARK  122  A    between atoms: _324  and  _327
REMARK  123  A    between atoms: _327  and  _328
REMARK  124  A    between atoms: _333  and  _334
REMARK  125  A    between atoms: _336  and  _338
REMARK  126  A    between atoms: _338  and  _339
REMARK  127  A    between atoms: _338  and  _341
REMARK  128  A    between atoms: _341  and  _342
REMARK  129  A    between atoms: _345  and  _347
REMARK  130  A    between atoms: _347  and  _348
REMARK  131  A    between atoms: _351  and  _353
REMARK  132  A    between atoms: _353  and  _354
REMARK  133  A    between atoms: _353  and  _356
REMARK  134  A    between atoms: _356  and  _357
REMARK  135  A    between atoms: _359  and  _361
REMARK  136  A    between atoms: _361  and  _362
REMARK  137  A    between atoms: _361  and  _364
REMARK  138  A    between atoms: _364  and  _365
REMARK  139  A    between atoms: _368  and  _370
REMARK  140  A    between atoms: _370  and  _371
REMARK  141  A    between atoms: _374  and  _376
REMARK  142  A    between atoms: _376  and  _377
REMARK  143  A    between atoms: _376  and  _379
REMARK  144  A    between atoms: _379  and  _380
REMARK  145  A    between atoms: _382  and  _384
REMARK  146  A    between atoms: _384  and  _385
REMARK  147  A    between atoms: _384  and  _387
REMARK  148  A    between atoms: _387  and  _388
REMARK  149  A    between atoms: _393  and  _395
REMARK  150  A    between atoms: _395  and  _396
REMARK  151  A    between atoms: _398  and  _400
REMARK  152  A    between atoms: _400  and  _401
REMARK  153  A    between atoms: _400  and  _403
REMARK  154  A    between atoms: _403  and  _404
REMARK  155  A    between atoms: _407  and  _409
REMARK  156  A    between atoms: _409  and  _410
REMARK  157  A    between atoms: _413  and  _415
REMARK  158  A    between atoms: _415  and  _416
REMARK  159  A    between atoms: _415  and  _418
REMARK  160  A    between atoms: _421  and  _423
REMARK  161  A    between atoms: _423  and  _424
REMARK  162  A    between atoms: _423  and  _426
REMARK  163  A    between atoms: _426  and  _427
REMARK  164  A    between atoms: _430  and  _432
REMARK  165  A    between atoms: _432  and  _433
REMARK  166  A    between atoms: _436  and  _438
REMARK  167  A    between atoms: _438  and  _439
REMARK  168  A    between atoms: _438  and  _441
REMARK  169  A    between atoms: _441  and  _442
REMARK  170  A    between atoms: _444  and  _446
REMARK  171  A    between atoms: _446  and  _447
REMARK  172  A    between atoms: _446  and  _449
REMARK  173  A    between atoms: _449  and  _450
REMARK  174  A    between atoms: _453  and  _455
REMARK  175  A    between atoms: _455  and  _456
REMARK  176  A    between atoms: _455  and  _458
REMARK  177  A    between atoms: _458  and  _459
REMARK  178  A    between atoms: _462  and  _464
REMARK  179  A    between atoms: _464  and  _465
REMARK  180  A    between atoms: _464  and  _467
REMARK  181  A    between atoms: _467  and  _468
REMARK  182  A    between atoms: _472  and  _473
REMARK  183  A    between atoms: _479  and  _480
REMARK  184  A    between atoms: _485  and  _487
REMARK  185  A    between atoms: _487  and  _488
REMARK  186  A    between atoms: _487  and  _490
REMARK  187  A    between atoms: _492  and  _494
REMARK  188  A    between atoms: _494  and  _495
REMARK  189  A    between atoms: _494  and  _497
REMARK  190  A    between atoms: _497  and  _498
REMARK  191  A    between atoms: _503  and  _505
REMARK  192  A    between atoms: _505  and  _506
REMARK  193  A    between atoms: _505  and  _508
REMARK  194  A    between atoms: _508  and  _509
REMARK  195  A    between atoms: _512  and  _514
REMARK  196  A    between atoms: _514  and  _515
REMARK  197  A    between atoms: _514  and  _517
REMARK  198  A    between atoms: _520  and  _522
REMARK  199  A    between atoms: _522  and  _523
REMARK  200  A    between atoms: _522  and  _525
REMARK  201  A    between atoms: _525  and  _526
REMARK  202  A    between atoms: _529  and  _531
REMARK  203  A    between atoms: _531  and  _532
REMARK  204  A    between atoms: _531  and  _534
REMARK  205  A    between atoms: _534  and  _535
REMARK  206  A    between atoms: _545  and  _547
REMARK  207  A    between atoms: _547  and  _548
REMARK  208  A    between atoms: _547  and  _550
REMARK  209  A    between atoms: _550  and  _551
REMARK  210  A    between atoms: _551  and  _552
REMARK  211  A    between atoms: _554  and  _556
REMARK  212  A    between atoms: _556  and  _557
REMARK  213  A    between atoms: _556  and  _559
REMARK  214  A    between atoms: _559  and  _560
REMARK  215  A    between atoms: _565  and  _567
REMARK  216  A    between atoms: _567  and  _568
REMARK  217  A    between atoms: _567  and  _570
REMARK  218  A    between atoms: _570  and  _571
REMARK  219  A    between atoms: _571  and  _572
REMARK  220  A    between atoms: _572  and  _573
REMARK                            x       y       z     vdW  Elec       q    Type
REMARK                         _______ _______ _______ _____ _____    ______ ____
ROOT
ATOM      1  NE  ARG A   1      14.159   5.533   8.169  0.00  0.00    -0.265 N 
ATOM      2  HE  ARG A   1      13.297   5.925   8.598  0.00  0.00    +0.259 HD
ATOM      3  CZ  ARG A   1      14.637   6.109   7.077  0.00  0.00    +0.342 C 
ATOM      4  NH2 ARG A   1      14.028   7.240   6.633  0.00  0.00    -0.292 N 
ATOM      5 HH21 ARG A   1      13.212   7.628   7.148  0.00  0.00    +0.255 HD
ATOM      6 HH22 ARG A   1      14.378   7.718   5.778  0.00  0.00    +0.255 HD
ATOM      7  NH1 ARG A   1      15.665   5.527   6.369  0.00  0.00    -0.292 N 
ATOM      8 HH11 ARG A   1      16.073   4.626   6.691  0.00  0.00    +0.255 HD
ATOM      9 HH12 ARG A   1      16.033   5.988   5.512  0.00  0.00    +0.255 HD
ENDROOT
BRANCH   1  10
ATOM     10  CD  ARG A   1      14.788   4.364   8.807  0.00  0.00    +0.174 C 
BRANCH  10  11
ATOM     11  CG  ARG A   1      13.927   3.924   9.993  0.00  0.00    +0.045 C 
BRANCH  11  12
ATOM     12  CB  ARG A   1      14.765   2.902  10.833  0.00  0.00    +0.029 C 
BRANCH  12  13
ATOM     13  CA  ARG A   1      13.982   2.202  11.927  0.00  0.00    +0.133 C 
BRANCH  13  14
ATOM     14  N   ARG A   1      14.902   1.616  12.894  0.00  0.00    -0.239 NA
ATOM     15  H   ARG A   1      15.824   1.275  12.555  0.00  0.00    +0.142 HD
ENDBRANCH  13  14
BRANCH  13  16
ATOM     16  C   ARG A   1      13.011   1.199  11.397  0.00  0.00    +0.224 C 
ATOM     17  O   ARG A   1      13.362   0.055  11.122  0.00  0.00    -0.287 OA
ENDBRANCH  13  16
ENDBRANCH  12  13
ENDBRANCH  11  12
ENDBRANCH  10  11
ENDBRANCH   1  10
TORSDOF 6
REMARK  Name = ../refined-set-2016/4qj0/4qj0_pocket.pdb
REMARK  220 active torsions:
REMARK  status: ('A' for Active; 'I' for Inactive)
REMARK    1  A    between atoms: _1  and  _5
REMARK    2  A    between atoms: _5  and  _6
REMARK    3  A    between atoms: _5  and  _8
REMARK    4  A    between atoms: _8  and  _9
REMARK    5  A    between atoms: _9  and  _10
REMARK    6  A    between atoms: _10  and  _11
REMARK    7  A    between atoms: _11  and  _12
REMARK    8  A    between atoms: _16  and  _18
REMARK    9  A    between atoms: _18  and  _19
REMARK   10  A    between atoms: _18  and  _21
REMARK   11  A    between atoms: _21  and  _22
REMARK   12  A    between atoms: _32  and  _34
REMARK   13  A    between atoms: _34  and  _35
REMARK   14  A    between atoms: _34  and  _37
REMARK   15  A    between atoms: _37  and  _38
REMARK   16  A    between atoms: _43  and  _44
REMARK   17  A    between atoms: _46  and  _48
REMARK   18  A    between atoms: _48  and  _49
REMARK   19  A    between atoms: _48  and  _51
REMARK   20  A    between atoms: _51  and  _52
REMARK   21  A    between atoms: _57  and  _58
REMARK   22  A    between atoms: _60  and  _62
REMARK   23  A    between atoms: _62  and  _63
REMARK   24  A    between atoms: _62  and  _65
REMARK   25  A    between atoms: _65  and  _66
REMARK   26  A    between atoms: _69  and  _70
REMARK   27  A    between atoms: _75  and  _77
REMARK   28  A    between atoms: _77  and  _78
REMARK   29  A    between atoms: _77  and  _80
REMARK   30  A    between atoms: _80  and  _81
REMARK   31  A    between atoms: _84  and  _86
REMARK   32  A    between atoms: _86  and  _87
REMARK   33  A    between atoms: _86  and  _89
REMARK   34  A    between atoms: _89  and  _90
REMARK   35  A    between atoms: _95  and  _97
REMARK   36  A    between atoms: _97  and  _98
REMARK   37  A    between atoms: _100  and  _102
REMARK   38  A    between atoms: _102  and  _103
REMARK   39  A    between atoms: _102  and  _105
REMARK   40  A    between atoms: _105  and  _106
REMARK   41  A    between atoms: _111  and  _113
REMARK   42  A    between atoms: _113  and  _114
REMARK   43  A    between atoms: _113  and  _116
REMARK   44  A    between atoms: _116  and  _117
REMARK   45  A    between atoms: _119  and  _121
REMARK   46  A    between atoms: _121  and  _122
REMARK   47  A    between atoms: _121  and  _124
REMARK   48  A    between atoms: _127  and  _129
REMARK   49  A    between atoms: _129  and  _130
REMARK   50  A    between atoms: _129  and  _132
REMARK   51  A    between atoms: _132  and  _133
REMARK   52  A    between atoms: _133  and  _134
REMARK   53  A    between atoms: _134  and  _135
REMARK   54  A    between atoms: _135  and  _136
REMARK   55  A    between atoms: _140  and  _142
REMARK   56  A    between atoms: _142  and  _143
REMARK   57  A    between atoms: _142  and  _145
REMARK   58  A    between atoms: _145  and  _146
REMARK   59  A    between atoms: _149  and  _151
REMARK   60  A    between atoms: _151  and  _152
REMARK   61  A    between atoms: _151  and  _154
REMARK   62  A    between atoms: _154  and  _155
REMARK   63  A    between atoms: _160  and  _162
REMARK   64  A    between atoms: _162  and  _163
REMARK   65  A    between atoms: _166  and  _168
REMARK   66  A    between atoms: _168  and  _169
REMARK   67  A    between atoms: _168  and  _171
REMARK   68  A    between atoms: _171  and  _172
REMARK   69  A    between atoms: _175  and  _177
REMARK   70  A    between atoms: _177  and  _178
REMARK   71  A    between atoms: _177  and  _180
REMARK   72  A    between atoms: _180  and  _181
REMARK   73  A    between atoms: _181  and  _182
REMARK   74  A    between atoms: _187  and  _189
REMARK   75  A    between atoms: _189  and  _190
REMARK   76  A    between atoms: _189  and  _192
REMARK   77  A    between atoms: _192  and  _193
REMARK   78  A    between atoms: _196  and  _198
REMARK   79  A    between atoms: _209  and  _212
REMARK   80  A    between atoms: _212  and  _213
REMARK   81  A    between atoms: _218  and  _219
REMARK   82  A    between atoms: _227  and  _229
REMARK   83  A    between atoms: _229  and  _230
REMARK   84  A    between atoms: _229  and  _232
REMARK   85  A    between atoms: _232  and  _233
REMARK   86  A    between atoms: _243  and  _245
REMARK   87  A    between atoms: _245  and  _246
REMARK   88  A    between atoms: _245  and  _248
REMARK   89  A    between atoms: _248  and  _249
REMARK   90  A    between atoms: _249  and  _250
REMARK   91  A    between atoms: _253  and  _255
REMARK   92  A    between atoms: _255  and  _256
REMARK   93  A    between atoms: _255  and  _258
REMARK   94  A    between atoms: _258  and  _259
REMARK   95  A    between atoms: _264  and  _266
REMARK   96  A    between atoms: _266  and  _267
REMARK   97  A    between atoms: _266  and  _269
REMARK   98  A    between atoms: _269  and  _270
REMARK   99  A    between atoms: _270  and  _271
REMARK  100  A    between atoms: _274  and  _276
REMARK  101  A    between atoms: _276  and  _277
REMARK  102  A    between atoms: _276  and  _279
REMARK  103  A    between atoms: _279  and  _280
REMARK  104  A    between atoms: _283  and  _285
REMARK  105  A    between atoms: _285  and  _286
REMARK  106  A    between atoms: _285  and  _288
REMARK  107  A    between atoms: _288  and  _289
REMARK  108  A    between atoms: _290  and  ZN_582
REMARK  109  A    between atoms: _294  and  _296
REMARK  110  A    between atoms: _296  and  _297
REMARK  111  A    between atoms: _296  and  _299
REMARK  112  A    between atoms: _299  and  _300
REMARK  113  A    between atoms: _303  and  _305
REMARK  114  A    between atoms: _305  and  _306
REMARK  115  A    between atoms: _305  and  _308
REMARK  116  A    between atoms: _311  and  _313
REMARK  117  A    between atoms: _313  and  _314
REMARK  118  A    between atoms: _313  and  _316
REMARK  119  A    between atoms: _316  and  _317
REMARK  120  A    between atoms: _322  and  _324
REMARK  121  A    between atoms: _324  and  _325
REMARK  122  A    between atoms: _324  and  _327
REMARK  123  A    between atoms: _327  and  _328
REMARK  124  A    between atoms: _333  and  _334
REMARK  125  A    between atoms: _336  and  _338
REMARK  126  A    between atoms: _338  and  _339
REMARK  127  A    between atoms: _338  and  _341
REMARK  128  A    between atoms: _341  and  _342
REMARK  129  A    between atoms: _345  and  _347
REMARK  130  A    between atoms: _347  and  _348
REMARK  131  A    between atoms: _351  and  _353
REMARK  132  A    between atoms: _353  and  _354
REMARK  133  A    between atoms: _353  and  _356
REMARK  134  A    between atoms: _356  and  _357
REMARK  135  A    between atoms: _359  and  _361
REMARK  136  A    between atoms: _361  and  _362
REMARK  137  A    between atoms: _361  and  _364
REMARK  138  A    between atoms: _364  and  _365
REMARK  139  A    between atoms: _368  and  _370
REMARK  140  A    between atoms: _370  and  _371
REMARK  141  A    between atoms: _374  and  _376
REMARK  142  A    between atoms: _376  and  _377
REMARK  143  A    between atoms: _376  and  _379
REMARK  144  A    between atoms: _379  and  _380
REMARK  145  A    between atoms: _382  and  _384
REMARK  146  A    between atoms: _384  and  _385
REMARK  147  A    between atoms: _384  and  _387
REMARK  148  A    between atoms: _387  and  _388
REMARK  149  A    between atoms: _393  and  _395
REMARK  150  A    between atoms: _395  and  _396
REMARK  151  A    between atoms: _398  and  _400
REMARK  152  A    between atoms: _400  and  _401
REMARK  153  A    between atoms: _400  and  _403
REMARK  154  A    between atoms: _403  and  _404
REMARK  155  A    between atoms: _407  and  _409
REMARK  156  A    between atoms: _409  and  _410
REMARK  157  A    between atoms: _413  and  _415
REMARK  158  A    between atoms: _415  and  _416
REMARK  159  A    between atoms: _415  and  _418
REMARK  160  A    between atoms: _421  and  _423
REMARK  161  A    between atoms: _423  and  _424
REMARK  162  A    between atoms: _423  and  _426
REMARK  163  A    between atoms: _426  and  _427
REMARK  164  A    between atoms: _430  and  _432
REMARK  165  A    between atoms: _432  and  _433
REMARK  166  A    between atoms: _436  and  _438
REMARK  167  A    between atoms: _438  and  _439
REMARK  168  A    between atoms: _438  and  _441
REMARK  169  A    between atoms: _441  and  _442
REMARK  170  A    between atoms: _444  and  _446
REMARK  171  A    between atoms: _446  and  _447
REMARK  172  A    between atoms: _446  and  _449
REMARK  173  A    between atoms: _449  and  _450
REMARK  174  A    between atoms: _453  and  _455
REMARK  175  A    between atoms: _455  and  _456
REMARK  176  A    between atoms: _455  and  _458
REMARK  177  A    between atoms: _458  and  _459
REMARK  178  A    between atoms: _462  and  _464
REMARK  179  A    between atoms: _464  and  _465
REMARK  180  A    between atoms: _464  and  _467
REMARK  181  A    between atoms: _467  and  _468
REMARK  182  A    between atoms: _472  and  _473
REMARK  183  A    between atoms: _479  and  _480
REMARK  184  A    between atoms: _485  and  _487
REMARK  185  A    between atoms: _487  and  _488
REMARK  186  A    between atoms: _487  and  _490
REMARK  187  A    between atoms: _492  and  _494
REMARK  188  A    between atoms: _494  and  _495
REMARK  189  A    between atoms: _494  and  _497
REMARK  190  A    between atoms: _497  and  _498
REMARK  191  A    between atoms: _503  and  _505
REMARK  192  A    between atoms: _505  and  _506
REMARK  193  A    between atoms: _505  and  _508
REMARK  194  A    between atoms: _508  and  _509
REMARK  195  A    between atoms: _512  and  _514
REMARK  196  A    between atoms: _514  and  _515
REMARK  197  A    between atoms: _514  and  _517
REMARK  198  A    between atoms: _520  and  _522
REMARK  199  A    between atoms: _522  and  _523
REMARK  200  A    between atoms: _522  and  _525
REMARK  201  A    between atoms: _525  and  _526
REMARK  202  A    between atoms: _529  and  _531
REMARK  203  A    between atoms: _531  and  _532
REMARK  204  A    between atoms: _531  and  _534
REMARK  205  A    between atoms: _534  and  _535
REMARK  206  A    between atoms: _545  and  _547
REMARK  207  A    between atoms: _547  and  _548
REMARK  208  A    between atoms: _547  and  _550
REMARK  209  A    between atoms: _550  and  _551
REMARK  210  A    between atoms: _551  and  _552
REMARK  211  A    between atoms: _554  and  _556
REMARK  212  A    between atoms: _556  and  _557
REMARK  213  A    between atoms: _556  and  _559
REMARK  214  A    between atoms: _559  and  _560
REMARK  215  A    between atoms: _565  and  _567
REMARK  216  A    between atoms: _567  and  _568
REMARK  217  A    between atoms: _567  and  _570
REMARK  218  A    between atoms: _570  and  _571
REMARK  219  A    between atoms: _571  and  _572
REMARK  220  A    between atoms: _572  and  _573
REMARK                            x       y       z     vdW  Elec       q    Type
REMARK                         _______ _______ _______ _____ _____    ______ ____
ROOT
ATOM      1  O   HOH     1      17.969   3.209  12.677  0.00  0.00    +0.000 OA
ENDROOT
TORSDOF 0
REMARK  Name = ../refined-set-2016/4qj0/4qj0_pocket.pdb
REMARK  220 active torsions:
REMARK  status: ('A' for Active; 'I' for Inactive)
REMARK    1  A    between atoms: _1  and  _5
REMARK    2  A    between atoms: _5  and  _6
REMARK    3  A    between atoms: _5  and  _8
REMARK    4  A    between atoms: _8  and  _9
REMARK    5  A    between atoms: _9  and  _10
REMARK    6  A    between atoms: _10  and  _11
REMARK    7  A    between atoms: _11  and  _12
REMARK    8  A    between atoms: _16  and  _18
REMARK    9  A    between atoms: _18  and  _19
REMARK   10  A    between atoms: _18  and  _21
REMARK   11  A    between atoms: _21  and  _22
REMARK   12  A    between atoms: _32  and  _34
REMARK   13  A    between atoms: _34  and  _35
REMARK   14  A    between atoms: _34  and  _37
REMARK   15  A    between atoms: _37  and  _38
REMARK   16  A    between atoms: _43  and  _44
REMARK   17  A    between atoms: _46  and  _48
REMARK   18  A    between atoms: _48  and  _49
REMARK   19  A    between atoms: _48  and  _51
REMARK   20  A    between atoms: _51  and  _52
REMARK   21  A    between atoms: _57  and  _58
REMARK   22  A    between atoms: _60  and  _62
REMARK   23  A    between atoms: _62  and  _63
REMARK   24  A    between atoms: _62  and  _65
REMARK   25  A    between atoms: _65  and  _66
REMARK   26  A    between atoms: _69  and  _70
REMARK   27  A    between atoms: _75  and  _77
REMARK   28  A    between atoms: _77  and  _78
REMARK   29  A    between atoms: _77  and  _80
REMARK   30  A    between atoms: _80  and  _81
REMARK   31  A    between atoms: _84  and  _86
REMARK   32  A    between atoms: _86  and  _87
REMARK   33  A    between atoms: _86  and  _89
REMARK   34  A    between atoms: _89  and  _90
REMARK   35  A    between atoms: _95  and  _97
REMARK   36  A    between atoms: _97  and  _98
REMARK   37  A    between atoms: _100  and  _102
REMARK   38  A    between atoms: _102  and  _103
REMARK   39  A    between atoms: _102  and  _105
REMARK   40  A    between atoms: _105  and  _106
REMARK   41  A    between atoms: _111  and  _113
REMARK   42  A    between atoms: _113  and  _114
REMARK   43  A    between atoms: _113  and  _116
REMARK   44  A    between atoms: _116  and  _117
REMARK   45  A    between atoms: _119  and  _121
REMARK   46  A    between atoms: _121  and  _122
REMARK   47  A    between atoms: _121  and  _124
REMARK   48  A    between atoms: _127  and  _129
REMARK   49  A    between atoms: _129  and  _130
REMARK   50  A    between atoms: _129  and  _132
REMARK   51  A    between atoms: _132  and  _133
REMARK   52  A    between atoms: _133  and  _134
REMARK   53  A    between atoms: _134  and  _135
REMARK   54  A    between atoms: _135  and  _136
REMARK   55  A    between atoms: _140  and  _142
REMARK   56  A    between atoms: _142  and  _143
REMARK   57  A    between atoms: _142  and  _145
REMARK   58  A    between atoms: _145  and  _146
REMARK   59  A    between atoms: _149  and  _151
REMARK   60  A    between atoms: _151  and  _152
REMARK   61  A    between atoms: _151  and  _154
REMARK   62  A    between atoms: _154  and  _155
REMARK   63  A    between atoms: _160  and  _162
REMARK   64  A    between atoms: _162  and  _163
REMARK   65  A    between atoms: _166  and  _168
REMARK   66  A    between atoms: _168  and  _169
REMARK   67  A    between atoms: _168  and  _171
REMARK   68  A    between atoms: _171  and  _172
REMARK   69  A    between atoms: _175  and  _177
REMARK   70  A    between atoms: _177  and  _178
REMARK   71  A    between atoms: _177  and  _180
REMARK   72  A    between atoms: _180  and  _181
REMARK   73  A    between atoms: _181  and  _182
REMARK   74  A    between atoms: _187  and  _189
REMARK   75  A    between atoms: _189  and  _190
REMARK   76  A    between atoms: _189  and  _192
REMARK   77  A    between atoms: _192  and  _193
REMARK   78  A    between atoms: _196  and  _198
REMARK   79  A    between atoms: _209  and  _212
REMARK   80  A    between atoms: _212  and  _213
REMARK   81  A    between atoms: _218  and  _219
REMARK   82  A    between atoms: _227  and  _229
REMARK   83  A    between atoms: _229  and  _230
REMARK   84  A    between atoms: _229  and  _232
REMARK   85  A    between atoms: _232  and  _233
REMARK   86  A    between atoms: _243  and  _245
REMARK   87  A    between atoms: _245  and  _246
REMARK   88  A    between atoms: _245  and  _248
REMARK   89  A    between atoms: _248  and  _249
REMARK   90  A    between atoms: _249  and  _250
REMARK   91  A    between atoms: _253  and  _255
REMARK   92  A    between atoms: _255  and  _256
REMARK   93  A    between atoms: _255  and  _258
REMARK   94  A    between atoms: _258  and  _259
REMARK   95  A    between atoms: _264  and  _266
REMARK   96  A    between atoms: _266  and  _267
REMARK   97  A    between atoms: _266  and  _269
REMARK   98  A    between atoms: _269  and  _270
REMARK   99  A    between atoms: _270  and  _271
REMARK  100  A    between atoms: _274  and  _276
REMARK  101  A    between atoms: _276  and  _277
REMARK  102  A    between atoms: _276  and  _279
REMARK  103  A    between atoms: _279  and  _280
REMARK  104  A    between atoms: _283  and  _285
REMARK  105  A    between atoms: _285  and  _286
REMARK  106  A    between atoms: _285  and  _288
REMARK  107  A    between atoms: _288  and  _289
REMARK  108  A    between atoms: _290  and  ZN_582
REMARK  109  A    between atoms: _294  and  _296
REMARK  110  A    between atoms: _296  and  _297
REMARK  111  A    between atoms: _296  and  _299
REMARK  112  A    between atoms: _299  and  _300
REMARK  113  A    between atoms: _303  and  _305
REMARK  114  A    between atoms: _305  and  _306
REMARK  115  A    between atoms: _305  and  _308
REMARK  116  A    between atoms: _311  and  _313
REMARK  117  A    between atoms: _313  and  _314
REMARK  118  A    between atoms: _313  and  _316
REMARK  119  A    between atoms: _316  and  _317
REMARK  120  A    between atoms: _322  and  _324
REMARK  121  A    between atoms: _324  and  _325
REMARK  122  A    between atoms: _324  and  _327
REMARK  123  A    between atoms: _327  and  _328
REMARK  124  A    between atoms: _333  and  _334
REMARK  125  A    between atoms: _336  and  _338
REMARK  126  A    between atoms: _338  and  _339
REMARK  127  A    between atoms: _338  and  _341
REMARK  128  A    between atoms: _341  and  _342
REMARK  129  A    between atoms: _345  and  _347
REMARK  130  A    between atoms: _347  and  _348
REMARK  131  A    between atoms: _351  and  _353
REMARK  132  A    between atoms: _353  and  _354
REMARK  133  A    between atoms: _353  and  _356
REMARK  134  A    between atoms: _356  and  _357
REMARK  135  A    between atoms: _359  and  _361
REMARK  136  A    between atoms: _361  and  _362
REMARK  137  A    between atoms: _361  and  _364
REMARK  138  A    between atoms: _364  and  _365
REMARK  139  A    between atoms: _368  and  _370
REMARK  140  A    between atoms: _370  and  _371
REMARK  141  A    between atoms: _374  and  _376
REMARK  142  A    between atoms: _376  and  _377
REMARK  143  A    between atoms: _376  and  _379
REMARK  144  A    between atoms: _379  and  _380
REMARK  145  A    between atoms: _382  and  _384
REMARK  146  A    between atoms: _384  and  _385
REMARK  147  A    between atoms: _384  and  _387
REMARK  148  A    between atoms: _387  and  _388
REMARK  149  A    between atoms: _393  and  _395
REMARK  150  A    between atoms: _395  and  _396
REMARK  151  A    between atoms: _398  and  _400
REMARK  152  A    between atoms: _400  and  _401
REMARK  153  A    between atoms: _400  and  _403
REMARK  154  A    between atoms: _403  and  _404
REMARK  155  A    between atoms: _407  and  _409
REMARK  156  A    between atoms: _409  and  _410
REMARK  157  A    between atoms: _413  and  _415
REMARK  158  A    between atoms: _415  and  _416
REMARK  159  A    between atoms: _415  and  _418
REMARK  160  A    between atoms: _421  and  _423
REMARK  161  A    between atoms: _423  and  _424
REMARK  162  A    between atoms: _423  and  _426
REMARK  163  A    between atoms: _426  and  _427
REMARK  164  A    between atoms: _430  and  _432
REMARK  165  A    between atoms: _432  and  _433
REMARK  166  A    between atoms: _436  and  _438
REMARK  167  A    between atoms: _438  and  _439
REMARK  168  A    between atoms: _438  and  _441
REMARK  169  A    between atoms: _441  and  _442
REMARK  170  A    between atoms: _444  and  _446
REMARK  171  A    between atoms: _446  and  _447
REMARK  172  A    between atoms: _446  and  _449
REMARK  173  A    between atoms: _449  and  _450
REMARK  174  A    between atoms: _453  and  _455
REMARK  175  A    between atoms: _455  and  _456
REMARK  176  A    between atoms: _455  and  _458
REMARK  177  A    between atoms: _458  and  _459
REMARK  178  A    between atoms: _462  and  _464
REMARK  179  A    between atoms: _464  and  _465
REMARK  180  A    between atoms: _464  and  _467
REMARK  181  A    between atoms: _467  and  _468
REMARK  182  A    between atoms: _472  and  _473
REMARK  183  A    between atoms: _479  and  _480
REMARK  184  A    between atoms: _485  and  _487
REMARK  185  A    between atoms: _487  and  _488
REMARK  186  A    between atoms: _487  and  _490
REMARK  187  A    between atoms: _492  and  _494
REMARK  188  A    between atoms: _494  and  _495
REMARK  189  A    between atoms: _494  and  _497
REMARK  190  A    between atoms: _497  and  _498
REMARK  191  A    between atoms: _503  and  _505
REMARK  192  A    between atoms: _505  and  _506
REMARK  193  A    between atoms: _505  and  _508
REMARK  194  A    between atoms: _508  and  _509
REMARK  195  A    between atoms: _512  and  _514
REMARK  196  A    between atoms: _514  and  _515
REMARK  197  A    between atoms: _514  and  _517
REMARK  198  A    between atoms: _520  and  _522
REMARK  199  A    between atoms: _522  and  _523
REMARK  200  A    between atoms: _522  and  _525
REMARK  201  A    between atoms: _525  and  _526
REMARK  202  A    between atoms: _529  and  _531
REMARK  203  A    between atoms: _531  and  _532
REMARK  204  A    between atoms: _531  and  _534
REMARK  205  A    between atoms: _534  and  _535
REMARK  206  A    between atoms: _545  and  _547
REMARK  207  A    between atoms: _547  and  _548
REMARK  208  A    between atoms: _547  and  _550
REMARK  209  A    between atoms: _550  and  _551
REMARK  210  A    between atoms: _551  and  _552
REMARK  211  A    between atoms: _554  and  _556
REMARK  212  A    between atoms: _556  and  _557
REMARK  213  A    between atoms: _556  and  _559
REMARK  214  A    between atoms: _559  and  _560
REMARK  215  A    between atoms: _565  and  _567
REMARK  216  A    between atoms: _567  and  _568
REMARK  217  A    between atoms: _567  and  _570
REMARK  218  A    between atoms: _570  and  _571
REMARK  219  A    between atoms: _571  and  _572
REMARK  220  A    between atoms: _572  and  _573
REMARK                            x       y       z     vdW  Elec       q    Type
REMARK                         _______ _______ _______ _____ _____    ______ ____
ROOT
ATOM      1  O   HOH     1      23.888  14.980   4.485  0.00  0.00    +0.000 OA
ENDROOT
TORSDOF 0
REMARK  Name = ../refined-set-2016/4qj0/4qj0_pocket.pdb
REMARK  220 active torsions:
REMARK  status: ('A' for Active; 'I' for Inactive)
REMARK    1  A    between atoms: _1  and  _5
REMARK    2  A    between atoms: _5  and  _6
REMARK    3  A    between atoms: _5  and  _8
REMARK    4  A    between atoms: _8  and  _9
REMARK    5  A    between atoms: _9  and  _10
REMARK    6  A    between atoms: _10  and  _11
REMARK    7  A    between atoms: _11  and  _12
REMARK    8  A    between atoms: _16  and  _18
REMARK    9  A    between atoms: _18  and  _19
REMARK   10  A    between atoms: _18  and  _21
REMARK   11  A    between atoms: _21  and  _22
REMARK   12  A    between atoms: _32  and  _34
REMARK   13  A    between atoms: _34  and  _35
REMARK   14  A    between atoms: _34  and  _37
REMARK   15  A    between atoms: _37  and  _38
REMARK   16  A    between atoms: _43  and  _44
REMARK   17  A    between atoms: _46  and  _48
REMARK   18  A    between atoms: _48  and  _49
REMARK   19  A    between atoms: _48  and  _51
REMARK   20  A    between atoms: _51  and  _52
REMARK   21  A    between atoms: _57  and  _58
REMARK   22  A    between atoms: _60  and  _62
REMARK   23  A    between atoms: _62  and  _63
REMARK   24  A    between atoms: _62  and  _65
REMARK   25  A    between atoms: _65  and  _66
REMARK   26  A    between atoms: _69  and  _70
REMARK   27  A    between atoms: _75  and  _77
REMARK   28  A    between atoms: _77  and  _78
REMARK   29  A    between atoms: _77  and  _80
REMARK   30  A    between atoms: _80  and  _81
REMARK   31  A    between atoms: _84  and  _86
REMARK   32  A    between atoms: _86  and  _87
REMARK   33  A    between atoms: _86  and  _89
REMARK   34  A    between atoms: _89  and  _90
REMARK   35  A    between atoms: _95  and  _97
REMARK   36  A    between atoms: _97  and  _98
REMARK   37  A    between atoms: _100  and  _102
REMARK   38  A    between atoms: _102  and  _103
REMARK   39  A    between atoms: _102  and  _105
REMARK   40  A    between atoms: _105  and  _106
REMARK   41  A    between atoms: _111  and  _113
REMARK   42  A    between atoms: _113  and  _114
REMARK   43  A    between atoms: _113  and  _116
REMARK   44  A    between atoms: _116  and  _117
REMARK   45  A    between atoms: _119  and  _121
REMARK   46  A    between atoms: _121  and  _122
REMARK   47  A    between atoms: _121  and  _124
REMARK   48  A    between atoms: _127  and  _129
REMARK   49  A    between atoms: _129  and  _130
REMARK   50  A    between atoms: _129  and  _132
REMARK   51  A    between atoms: _132  and  _133
REMARK   52  A    between atoms: _133  and  _134
REMARK   53  A    between atoms: _134  and  _135
REMARK   54  A    between atoms: _135  and  _136
REMARK   55  A    between atoms: _140  and  _142
REMARK   56  A    between atoms: _142  and  _143
REMARK   57  A    between atoms: _142  and  _145
REMARK   58  A    between atoms: _145  and  _146
REMARK   59  A    between atoms: _149  and  _151
REMARK   60  A    between atoms: _151  and  _152
REMARK   61  A    between atoms: _151  and  _154
REMARK   62  A    between atoms: _154  and  _155
REMARK   63  A    between atoms: _160  and  _162
REMARK   64  A    between atoms: _162  and  _163
REMARK   65  A    between atoms: _166  and  _168
REMARK   66  A    between atoms: _168  and  _169
REMARK   67  A    between atoms: _168  and  _171
REMARK   68  A    between atoms: _171  and  _172
REMARK   69  A    between atoms: _175  and  _177
REMARK   70  A    between atoms: _177  and  _178
REMARK   71  A    between atoms: _177  and  _180
REMARK   72  A    between atoms: _180  and  _181
REMARK   73  A    between atoms: _181  and  _182
REMARK   74  A    between atoms: _187  and  _189
REMARK   75  A    between atoms: _189  and  _190
REMARK   76  A    between atoms: _189  and  _192
REMARK   77  A    between atoms: _192  and  _193
REMARK   78  A    between atoms: _196  and  _198
REMARK   79  A    between atoms: _209  and  _212
REMARK   80  A    between atoms: _212  and  _213
REMARK   81  A    between atoms: _218  and  _219
REMARK   82  A    between atoms: _227  and  _229
REMARK   83  A    between atoms: _229  and  _230
REMARK   84  A    between atoms: _229  and  _232
REMARK   85  A    between atoms: _232  and  _233
REMARK   86  A    between atoms: _243  and  _245
REMARK   87  A    between atoms: _245  and  _246
REMARK   88  A    between atoms: _245  and  _248
REMARK   89  A    between atoms: _248  and  _249
REMARK   90  A    between atoms: _249  and  _250
REMARK   91  A    between atoms: _253  and  _255
REMARK   92  A    between atoms: _255  and  _256
REMARK   93  A    between atoms: _255  and  _258
REMARK   94  A    between atoms: _258  and  _259
REMARK   95  A    between atoms: _264  and  _266
REMARK   96  A    between atoms: _266  and  _267
REMARK   97  A    between atoms: _266  and  _269
REMARK   98  A    between atoms: _269  and  _270
REMARK   99  A    between atoms: _270  and  _271
REMARK  100  A    between atoms: _274  and  _276
REMARK  101  A    between atoms: _276  and  _277
REMARK  102  A    between atoms: _276  and  _279
REMARK  103  A    between atoms: _279  and  _280
REMARK  104  A    between atoms: _283  and  _285
REMARK  105  A    between atoms: _285  and  _286
REMARK  106  A    between atoms: _285  and  _288
REMARK  107  A    between atoms: _288  and  _289
REMARK  108  A    between atoms: _290  and  ZN_582
REMARK  109  A    between atoms: _294  and  _296
REMARK  110  A    between atoms: _296  and  _297
REMARK  111  A    between atoms: _296  and  _299
REMARK  112  A    between atoms: _299  and  _300
REMARK  113  A    between atoms: _303  and  _305
REMARK  114  A    between atoms: _305  and  _306
REMARK  115  A    between atoms: _305  and  _308
REMARK  116  A    between atoms: _311  and  _313
REMARK  117  A    between atoms: _313  and  _314
REMARK  118  A    between atoms: _313  and  _316
REMARK  119  A    between atoms: _316  and  _317
REMARK  120  A    between atoms: _322  and  _324
REMARK  121  A    between atoms: _324  and  _325
REMARK  122  A    between atoms: _324  and  _327
REMARK  123  A    between atoms: _327  and  _328
REMARK  124  A    between atoms: _333  and  _334
REMARK  125  A    between atoms: _336  and  _338
REMARK  126  A    between atoms: _338  and  _339
REMARK  127  A    between atoms: _338  and  _341
REMARK  128  A    between atoms: _341  and  _342
REMARK  129  A    between atoms: _345  and  _347
REMARK  130  A    between atoms: _347  and  _348
REMARK  131  A    between atoms: _351  and  _353
REMARK  132  A    between atoms: _353  and  _354
REMARK  133  A    between atoms: _353  and  _356
REMARK  134  A    between atoms: _356  and  _357
REMARK  135  A    between atoms: _359  and  _361
REMARK  136  A    between atoms: _361  and  _362
REMARK  137  A    between atoms: _361  and  _364
REMARK  138  A    between atoms: _364  and  _365
REMARK  139  A    between atoms: _368  and  _370
REMARK  140  A    between atoms: _370  and  _371
REMARK  141  A    between atoms: _374  and  _376
REMARK  142  A    between atoms: _376  and  _377
REMARK  143  A    between atoms: _376  and  _379
REMARK  144  A    between atoms: _379  and  _380
REMARK  145  A    between atoms: _382  and  _384
REMARK  146  A    between atoms: _384  and  _385
REMARK  147  A    between atoms: _384  and  _387
REMARK  148  A    between atoms: _387  and  _388
REMARK  149  A    between atoms: _393  and  _395
REMARK  150  A    between atoms: _395  and  _396
REMARK  151  A    between atoms: _398  and  _400
REMARK  152  A    between atoms: _400  and  _401
REMARK  153  A    between atoms: _400  and  _403
REMARK  154  A    between atoms: _403  and  _404
REMARK  155  A    between atoms: _407  and  _409
REMARK  156  A    between atoms: _409  and  _410
REMARK  157  A    between atoms: _413  and  _415
REMARK  158  A    between atoms: _415  and  _416
REMARK  159  A    between atoms: _415  and  _418
REMARK  160  A    between atoms: _421  and  _423
REMARK  161  A    between atoms: _423  and  _424
REMARK  162  A    between atoms: _423  and  _426
REMARK  163  A    between atoms: _426  and  _427
REMARK  164  A    between atoms: _430  and  _432
REMARK  165  A    between atoms: _432  and  _433
REMARK  166  A    between atoms: _436  and  _438
REMARK  167  A    between atoms: _438  and  _439
REMARK  168  A    between atoms: _438  and  _441
REMARK  169  A    between atoms: _441  and  _442
REMARK  170  A    between atoms: _444  and  _446
REMARK  171  A    between atoms: _446  and  _447
REMARK  172  A    between atoms: _446  and  _449
REMARK  173  A    between atoms: _449  and  _450
REMARK  174  A    between atoms: _453  and  _455
REMARK  175  A    between atoms: _455  and  _456
REMARK  176  A    between atoms: _455  and  _458
REMARK  177  A    between atoms: _458  and  _459
REMARK  178  A    between atoms: _462  and  _464
REMARK  179  A    between atoms: _464  and  _465
REMARK  180  A    between atoms: _464  and  _467
REMARK  181  A    between atoms: _467  and  _468
REMARK  182  A    between atoms: _472  and  _473
REMARK  183  A    between atoms: _479  and  _480
REMARK  184  A    between atoms: _485  and  _487
REMARK  185  A    between atoms: _487  and  _488
REMARK  186  A    between atoms: _487  and  _490
REMARK  187  A    between atoms: _492  and  _494
REMARK  188  A    between atoms: _494  and  _495
REMARK  189  A    between atoms: _494  and  _497
REMARK  190  A    between atoms: _497  and  _498
REMARK  191  A    between atoms: _503  and  _505
REMARK  192  A    between atoms: _505  and  _506
REMARK  193  A    between atoms: _505  and  _508
REMARK  194  A    between atoms: _508  and  _509
REMARK  195  A    between atoms: _512  and  _514
REMARK  196  A    between atoms: _514  and  _515
REMARK  197  A    between atoms: _514  and  _517
REMARK  198  A    between atoms: _520  and  _522
REMARK  199  A    between atoms: _522  and  _523
REMARK  200  A    between atoms: _522  and  _525
REMARK  201  A    between atoms: _525  and  _526
REMARK  202  A    between atoms: _529  and  _531
REMARK  203  A    between atoms: _531  and  _532
REMARK  204  A    between atoms: _531  and  _534
REMARK  205  A    between atoms: _534  and  _535
REMARK  206  A    between atoms: _545  and  _547
REMARK  207  A    between atoms: _547  and  _548
REMARK  208  A    between atoms: _547  and  _550
REMARK  209  A    between atoms: _550  and  _551
REMARK  210  A    between atoms: _551  and  _552
REMARK  211  A    between atoms: _554  and  _556
REMARK  212  A    between atoms: _556  and  _557
REMARK  213  A    between atoms: _556  and  _559
REMARK  214  A    between atoms: _559  and  _560
REMARK  215  A    between atoms: _565  and  _567
REMARK  216  A    between atoms: _567  and  _568
REMARK  217  A    between atoms: _567  and  _570
REMARK  218  A    between atoms: _570  and  _571
REMARK  219  A    between atoms: _571  and  _572
REMARK  220  A    between atoms: _572  and  _573
REMARK                            x       y       z     vdW  Elec       q    Type
REMARK                         _______ _______ _______ _____ _____    ______ ____
ROOT
ATOM      1  O   HOH     1      17.990   5.567  20.972  0.00  0.00    +0.000 OA
ENDROOT
TORSDOF 0
REMARK  Name = ../refined-set-2016/4qj0/4qj0_pocket.pdb
REMARK  220 active torsions:
REMARK  status: ('A' for Active; 'I' for Inactive)
REMARK    1  A    between atoms: _1  and  _5
REMARK    2  A    between atoms: _5  and  _6
REMARK    3  A    between atoms: _5  and  _8
REMARK    4  A    between atoms: _8  and  _9
REMARK    5  A    between atoms: _9  and  _10
REMARK    6  A    between atoms: _10  and  _11
REMARK    7  A    between atoms: _11  and  _12
REMARK    8  A    between atoms: _16  and  _18
REMARK    9  A    between atoms: _18  and  _19
REMARK   10  A    between atoms: _18  and  _21
REMARK   11  A    between atoms: _21  and  _22
REMARK   12  A    between atoms: _32  and  _34
REMARK   13  A    between atoms: _34  and  _35
REMARK   14  A    between atoms: _34  and  _37
REMARK   15  A    between atoms: _37  and  _38
REMARK   16  A    between atoms: _43  and  _44
REMARK   17  A    between atoms: _46  and  _48
REMARK   18  A    between atoms: _48  and  _49
REMARK   19  A    between atoms: _48  and  _51
REMARK   20  A    between atoms: _51  and  _52
REMARK   21  A    between atoms: _57  and  _58
REMARK   22  A    between atoms: _60  and  _62
REMARK   23  A    between atoms: _62  and  _63
REMARK   24  A    between atoms: _62  and  _65
REMARK   25  A    between atoms: _65  and  _66
REMARK   26  A    between atoms: _69  and  _70
REMARK   27  A    between atoms: _75  and  _77
REMARK   28  A    between atoms: _77  and  _78
REMARK   29  A    between atoms: _77  and  _80
REMARK   30  A    between atoms: _80  and  _81
REMARK   31  A    between atoms: _84  and  _86
REMARK   32  A    between atoms: _86  and  _87
REMARK   33  A    between atoms: _86  and  _89
REMARK   34  A    between atoms: _89  and  _90
REMARK   35  A    between atoms: _95  and  _97
REMARK   36  A    between atoms: _97  and  _98
REMARK   37  A    between atoms: _100  and  _102
REMARK   38  A    between atoms: _102  and  _103
REMARK   39  A    between atoms: _102  and  _105
REMARK   40  A    between atoms: _105  and  _106
REMARK   41  A    between atoms: _111  and  _113
REMARK   42  A    between atoms: _113  and  _114
REMARK   43  A    between atoms: _113  and  _116
REMARK   44  A    between atoms: _116  and  _117
REMARK   45  A    between atoms: _119  and  _121
REMARK   46  A    between atoms: _121  and  _122
REMARK   47  A    between atoms: _121  and  _124
REMARK   48  A    between atoms: _127  and  _129
REMARK   49  A    between atoms: _129  and  _130
REMARK   50  A    between atoms: _129  and  _132
REMARK   51  A    between atoms: _132  and  _133
REMARK   52  A    between atoms: _133  and  _134
REMARK   53  A    between atoms: _134  and  _135
REMARK   54  A    between atoms: _135  and  _136
REMARK   55  A    between atoms: _140  and  _142
REMARK   56  A    between atoms: _142  and  _143
REMARK   57  A    between atoms: _142  and  _145
REMARK   58  A    between atoms: _145  and  _146
REMARK   59  A    between atoms: _149  and  _151
REMARK   60  A    between atoms: _151  and  _152
REMARK   61  A    between atoms: _151  and  _154
REMARK   62  A    between atoms: _154  and  _155
REMARK   63  A    between atoms: _160  and  _162
REMARK   64  A    between atoms: _162  and  _163
REMARK   65  A    between atoms: _166  and  _168
REMARK   66  A    between atoms: _168  and  _169
REMARK   67  A    between atoms: _168  and  _171
REMARK   68  A    between atoms: _171  and  _172
REMARK   69  A    between atoms: _175  and  _177
REMARK   70  A    between atoms: _177  and  _178
REMARK   71  A    between atoms: _177  and  _180
REMARK   72  A    between atoms: _180  and  _181
REMARK   73  A    between atoms: _181  and  _182
REMARK   74  A    between atoms: _187  and  _189
REMARK   75  A    between atoms: _189  and  _190
REMARK   76  A    between atoms: _189  and  _192
REMARK   77  A    between atoms: _192  and  _193
REMARK   78  A    between atoms: _196  and  _198
REMARK   79  A    between atoms: _209  and  _212
REMARK   80  A    between atoms: _212  and  _213
REMARK   81  A    between atoms: _218  and  _219
REMARK   82  A    between atoms: _227  and  _229
REMARK   83  A    between atoms: _229  and  _230
REMARK   84  A    between atoms: _229  and  _232
REMARK   85  A    between atoms: _232  and  _233
REMARK   86  A    between atoms: _243  and  _245
REMARK   87  A    between atoms: _245  and  _246
REMARK   88  A    between atoms: _245  and  _248
REMARK   89  A    between atoms: _248  and  _249
REMARK   90  A    between atoms: _249  and  _250
REMARK   91  A    between atoms: _253  and  _255
REMARK   92  A    between atoms: _255  and  _256
REMARK   93  A    between atoms: _255  and  _258
REMARK   94  A    between atoms: _258  and  _259
REMARK   95  A    between atoms: _264  and  _266
REMARK   96  A    between atoms: _266  and  _267
REMARK   97  A    between atoms: _266  and  _269
REMARK   98  A    between atoms: _269  and  _270
REMARK   99  A    between atoms: _270  and  _271
REMARK  100  A    between atoms: _274  and  _276
REMARK  101  A    between atoms: _276  and  _277
REMARK  102  A    between atoms: _276  and  _279
REMARK  103  A    between atoms: _279  and  _280
REMARK  104  A    between atoms: _283  and  _285
REMARK  105  A    between atoms: _285  and  _286
REMARK  106  A    between atoms: _285  and  _288
REMARK  107  A    between atoms: _288  and  _289
REMARK  108  A    between atoms: _290  and  ZN_582
REMARK  109  A    between atoms: _294  and  _296
REMARK  110  A    between atoms: _296  and  _297
REMARK  111  A    between atoms: _296  and  _299
REMARK  112  A    between atoms: _299  and  _300
REMARK  113  A    between atoms: _303  and  _305
REMARK  114  A    between atoms: _305  and  _306
REMARK  115  A    between atoms: _305  and  _308
REMARK  116  A    between atoms: _311  and  _313
REMARK  117  A    between atoms: _313  and  _314
REMARK  118  A    between atoms: _313  and  _316
REMARK  119  A    between atoms: _316  and  _317
REMARK  120  A    between atoms: _322  and  _324
REMARK  121  A    between atoms: _324  and  _325
REMARK  122  A    between atoms: _324  and  _327
REMARK  123  A    between atoms: _327  and  _328
REMARK  124  A    between atoms: _333  and  _334
REMARK  125  A    between atoms: _336  and  _338
REMARK  126  A    between atoms: _338  and  _339
REMARK  127  A    between atoms: _338  and  _341
REMARK  128  A    between atoms: _341  and  _342
REMARK  129  A    between atoms: _345  and  _347
REMARK  130  A    between atoms: _347  and  _348
REMARK  131  A    between atoms: _351  and  _353
REMARK  132  A    between atoms: _353  and  _354
REMARK  133  A    between atoms: _353  and  _356
REMARK  134  A    between atoms: _356  and  _357
REMARK  135  A    between atoms: _359  and  _361
REMARK  136  A    between atoms: _361  and  _362
REMARK  137  A    between atoms: _361  and  _364
REMARK  138  A    between atoms: _364  and  _365
REMARK  139  A    between atoms: _368  and  _370
REMARK  140  A    between atoms: _370  and  _371
REMARK  141  A    between atoms: _374  and  _376
REMARK  142  A    between atoms: _376  and  _377
REMARK  143  A    between atoms: _376  and  _379
REMARK  144  A    between atoms: _379  and  _380
REMARK  145  A    between atoms: _382  and  _384
REMARK  146  A    between atoms: _384  and  _385
REMARK  147  A    between atoms: _384  and  _387
REMARK  148  A    between atoms: _387  and  _388
REMARK  149  A    between atoms: _393  and  _395
REMARK  150  A    between atoms: _395  and  _396
REMARK  151  A    between atoms: _398  and  _400
REMARK  152  A    between atoms: _400  and  _401
REMARK  153  A    between atoms: _400  and  _403
REMARK  154  A    between atoms: _403  and  _404
REMARK  155  A    between atoms: _407  and  _409
REMARK  156  A    between atoms: _409  and  _410
REMARK  157  A    between atoms: _413  and  _415
REMARK  158  A    between atoms: _415  and  _416
REMARK  159  A    between atoms: _415  and  _418
REMARK  160  A    between atoms: _421  and  _423
REMARK  161  A    between atoms: _423  and  _424
REMARK  162  A    between atoms: _423  and  _426
REMARK  163  A    between atoms: _426  and  _427
REMARK  164  A    between atoms: _430  and  _432
REMARK  165  A    between atoms: _432  and  _433
REMARK  166  A    between atoms: _436  and  _438
REMARK  167  A    between atoms: _438  and  _439
REMARK  168  A    between atoms: _438  and  _441
REMARK  169  A    between atoms: _441  and  _442
REMARK  170  A    between atoms: _444  and  _446
REMARK  171  A    between atoms: _446  and  _447
REMARK  172  A    between atoms: _446  and  _449
REMARK  173  A    between atoms: _449  and  _450
REMARK  174  A    between atoms: _453  and  _455
REMARK  175  A    between atoms: _455  and  _456
REMARK  176  A    between atoms: _455  and  _458
REMARK  177  A    between atoms: _458  and  _459
REMARK  178  A    between atoms: _462  and  _464
REMARK  179  A    between atoms: _464  and  _465
REMARK  180  A    between atoms: _464  and  _467
REMARK  181  A    between atoms: _467  and  _468
REMARK  182  A    between atoms: _472  and  _473
REMARK  183  A    between atoms: _479  and  _480
REMARK  184  A    between atoms: _485  and  _487
REMARK  185  A    between atoms: _487  and  _488
REMARK  186  A    between atoms: _487  and  _490
REMARK  187  A    between atoms: _492  and  _494
REMARK  188  A    between atoms: _494  and  _495
REMARK  189  A    between atoms: _494  and  _497
REMARK  190  A    between atoms: _497  and  _498
REMARK  191  A    between atoms: _503  and  _505
REMARK  192  A    between atoms: _505  and  _506
REMARK  193  A    between atoms: _505  and  _508
REMARK  194  A    between atoms: _508  and  _509
REMARK  195  A    between atoms: _512  and  _514
REMARK  196  A    between atoms: _514  and  _515
REMARK  197  A    between atoms: _514  and  _517
REMARK  198  A    between atoms: _520  and  _522
REMARK  199  A    between atoms: _522  and  _523
REMARK  200  A    between atoms: _522  and  _525
REMARK  201  A    between atoms: _525  and  _526
REMARK  202  A    between atoms: _529  and  _531
REMARK  203  A    between atoms: _531  and  _532
REMARK  204  A    between atoms: _531  and  _534
REMARK  205  A    between atoms: _534  and  _535
REMARK  206  A    between atoms: _545  and  _547
REMARK  207  A    between atoms: _547  and  _548
REMARK  208  A    between atoms: _547  and  _550
REMARK  209  A    between atoms: _550  and  _551
REMARK  210  A    between atoms: _551  and  _552
REMARK  211  A    between atoms: _554  and  _556
REMARK  212  A    between atoms: _556  and  _557
REMARK  213  A    between atoms: _556  and  _559
REMARK  214  A    between atoms: _559  and  _560
REMARK  215  A    between atoms: _565  and  _567
REMARK  216  A    between atoms: _567  and  _568
REMARK  217  A    between atoms: _567  and  _570
REMARK  218  A    between atoms: _570  and  _571
REMARK  219  A    between atoms: _571  and  _572
REMARK  220  A    between atoms: _572  and  _573
REMARK                            x       y       z     vdW  Elec       q    Type
REMARK                         _______ _______ _______ _____ _____    ______ ____
ROOT
ATOM      1  O   HOH     1      33.629   6.351  15.681  0.00  0.00    +0.000 OA
ENDROOT
TORSDOF 0
REMARK  Name = ../refined-set-2016/4qj0/4qj0_pocket.pdb
REMARK  220 active torsions:
REMARK  status: ('A' for Active; 'I' for Inactive)
REMARK    1  A    between atoms: _1  and  _5
REMARK    2  A    between atoms: _5  and  _6
REMARK    3  A    between atoms: _5  and  _8
REMARK    4  A    between atoms: _8  and  _9
REMARK    5  A    between atoms: _9  and  _10
REMARK    6  A    between atoms: _10  and  _11
REMARK    7  A    between atoms: _11  and  _12
REMARK    8  A    between atoms: _16  and  _18
REMARK    9  A    between atoms: _18  and  _19
REMARK   10  A    between atoms: _18  and  _21
REMARK   11  A    between atoms: _21  and  _22
REMARK   12  A    between atoms: _32  and  _34
REMARK   13  A    between atoms: _34  and  _35
REMARK   14  A    between atoms: _34  and  _37
REMARK   15  A    between atoms: _37  and  _38
REMARK   16  A    between atoms: _43  and  _44
REMARK   17  A    between atoms: _46  and  _48
REMARK   18  A    between atoms: _48  and  _49
REMARK   19  A    between atoms: _48  and  _51
REMARK   20  A    between atoms: _51  and  _52
REMARK   21  A    between atoms: _57  and  _58
REMARK   22  A    between atoms: _60  and  _62
REMARK   23  A    between atoms: _62  and  _63
REMARK   24  A    between atoms: _62  and  _65
REMARK   25  A    between atoms: _65  and  _66
REMARK   26  A    between atoms: _69  and  _70
REMARK   27  A    between atoms: _75  and  _77
REMARK   28  A    between atoms: _77  and  _78
REMARK   29  A    between atoms: _77  and  _80
REMARK   30  A    between atoms: _80  and  _81
REMARK   31  A    between atoms: _84  and  _86
REMARK   32  A    between atoms: _86  and  _87
REMARK   33  A    between atoms: _86  and  _89
REMARK   34  A    between atoms: _89  and  _90
REMARK   35  A    between atoms: _95  and  _97
REMARK   36  A    between atoms: _97  and  _98
REMARK   37  A    between atoms: _100  and  _102
REMARK   38  A    between atoms: _102  and  _103
REMARK   39  A    between atoms: _102  and  _105
REMARK   40  A    between atoms: _105  and  _106
REMARK   41  A    between atoms: _111  and  _113
REMARK   42  A    between atoms: _113  and  _114
REMARK   43  A    between atoms: _113  and  _116
REMARK   44  A    between atoms: _116  and  _117
REMARK   45  A    between atoms: _119  and  _121
REMARK   46  A    between atoms: _121  and  _122
REMARK   47  A    between atoms: _121  and  _124
REMARK   48  A    between atoms: _127  and  _129
REMARK   49  A    between atoms: _129  and  _130
REMARK   50  A    between atoms: _129  and  _132
REMARK   51  A    between atoms: _132  and  _133
REMARK   52  A    between atoms: _133  and  _134
REMARK   53  A    between atoms: _134  and  _135
REMARK   54  A    between atoms: _135  and  _136
REMARK   55  A    between atoms: _140  and  _142
REMARK   56  A    between atoms: _142  and  _143
REMARK   57  A    between atoms: _142  and  _145
REMARK   58  A    between atoms: _145  and  _146
REMARK   59  A    between atoms: _149  and  _151
REMARK   60  A    between atoms: _151  and  _152
REMARK   61  A    between atoms: _151  and  _154
REMARK   62  A    between atoms: _154  and  _155
REMARK   63  A    between atoms: _160  and  _162
REMARK   64  A    between atoms: _162  and  _163
REMARK   65  A    between atoms: _166  and  _168
REMARK   66  A    between atoms: _168  and  _169
REMARK   67  A    between atoms: _168  and  _171
REMARK   68  A    between atoms: _171  and  _172
REMARK   69  A    between atoms: _175  and  _177
REMARK   70  A    between atoms: _177  and  _178
REMARK   71  A    between atoms: _177  and  _180
REMARK   72  A    between atoms: _180  and  _181
REMARK   73  A    between atoms: _181  and  _182
REMARK   74  A    between atoms: _187  and  _189
REMARK   75  A    between atoms: _189  and  _190
REMARK   76  A    between atoms: _189  and  _192
REMARK   77  A    between atoms: _192  and  _193
REMARK   78  A    between atoms: _196  and  _198
REMARK   79  A    between atoms: _209  and  _212
REMARK   80  A    between atoms: _212  and  _213
REMARK   81  A    between atoms: _218  and  _219
REMARK   82  A    between atoms: _227  and  _229
REMARK   83  A    between atoms: _229  and  _230
REMARK   84  A    between atoms: _229  and  _232
REMARK   85  A    between atoms: _232  and  _233
REMARK   86  A    between atoms: _243  and  _245
REMARK   87  A    between atoms: _245  and  _246
REMARK   88  A    between atoms: _245  and  _248
REMARK   89  A    between atoms: _248  and  _249
REMARK   90  A    between atoms: _249  and  _250
REMARK   91  A    between atoms: _253  and  _255
REMARK   92  A    between atoms: _255  and  _256
REMARK   93  A    between atoms: _255  and  _258
REMARK   94  A    between atoms: _258  and  _259
REMARK   95  A    between atoms: _264  and  _266
REMARK   96  A    between atoms: _266  and  _267
REMARK   97  A    between atoms: _266  and  _269
REMARK   98  A    between atoms: _269  and  _270
REMARK   99  A    between atoms: _270  and  _271
REMARK  100  A    between atoms: _274  and  _276
REMARK  101  A    between atoms: _276  and  _277
REMARK  102  A    between atoms: _276  and  _279
REMARK  103  A    between atoms: _279  and  _280
REMARK  104  A    between atoms: _283  and  _285
REMARK  105  A    between atoms: _285  and  _286
REMARK  106  A    between atoms: _285  and  _288
REMARK  107  A    between atoms: _288  and  _289
REMARK  108  A    between atoms: _290  and  ZN_582
REMARK  109  A    between atoms: _294  and  _296
REMARK  110  A    between atoms: _296  and  _297
REMARK  111  A    between atoms: _296  and  _299
REMARK  112  A    between atoms: _299  and  _300
REMARK  113  A    between atoms: _303  and  _305
REMARK  114  A    between atoms: _305  and  _306
REMARK  115  A    between atoms: _305  and  _308
REMARK  116  A    between atoms: _311  and  _313
REMARK  117  A    between atoms: _313  and  _314
REMARK  118  A    between atoms: _313  and  _316
REMARK  119  A    between atoms: _316  and  _317
REMARK  120  A    between atoms: _322  and  _324
REMARK  121  A    between atoms: _324  and  _325
REMARK  122  A    between atoms: _324  and  _327
REMARK  123  A    between atoms: _327  and  _328
REMARK  124  A    between atoms: _333  and  _334
REMARK  125  A    between atoms: _336  and  _338
REMARK  126  A    between atoms: _338  and  _339
REMARK  127  A    between atoms: _338  and  _341
REMARK  128  A    between atoms: _341  and  _342
REMARK  129  A    between atoms: _345  and  _347
REMARK  130  A    between atoms: _347  and  _348
REMARK  131  A    between atoms: _351  and  _353
REMARK  132  A    between atoms: _353  and  _354
REMARK  133  A    between atoms: _353  and  _356
REMARK  134  A    between atoms: _356  and  _357
REMARK  135  A    between atoms: _359  and  _361
REMARK  136  A    between atoms: _361  and  _362
REMARK  137  A    between atoms: _361  and  _364
REMARK  138  A    between atoms: _364  and  _365
REMARK  139  A    between atoms: _368  and  _370
REMARK  140  A    between atoms: _370  and  _371
REMARK  141  A    between atoms: _374  and  _376
REMARK  142  A    between atoms: _376  and  _377
REMARK  143  A    between atoms: _376  and  _379
REMARK  144  A    between atoms: _379  and  _380
REMARK  145  A    between atoms: _382  and  _384
REMARK  146  A    between atoms: _384  and  _385
REMARK  147  A    between atoms: _384  and  _387
REMARK  148  A    between atoms: _387  and  _388
REMARK  149  A    between atoms: _393  and  _395
REMARK  150  A    between atoms: _395  and  _396
REMARK  151  A    between atoms: _398  and  _400
REMARK  152  A    between atoms: _400  and  _401
REMARK  153  A    between atoms: _400  and  _403
REMARK  154  A    between atoms: _403  and  _404
REMARK  155  A    between atoms: _407  and  _409
REMARK  156  A    between atoms: _409  and  _410
REMARK  157  A    between atoms: _413  and  _415
REMARK  158  A    between atoms: _415  and  _416
REMARK  159  A    between atoms: _415  and  _418
REMARK  160  A    between atoms: _421  and  _423
REMARK  161  A    between atoms: _423  and  _424
REMARK  162  A    between atoms: _423  and  _426
REMARK  163  A    between atoms: _426  and  _427
REMARK  164  A    between atoms: _430  and  _432
REMARK  165  A    between atoms: _432  and  _433
REMARK  166  A    between atoms: _436  and  _438
REMARK  167  A    between atoms: _438  and  _439
REMARK  168  A    between atoms: _438  and  _441
REMARK  169  A    between atoms: _441  and  _442
REMARK  170  A    between atoms: _444  and  _446
REMARK  171  A    between atoms: _446  and  _447
REMARK  172  A    between atoms: _446  and  _449
REMARK  173  A    between atoms: _449  and  _450
REMARK  174  A    between atoms: _453  and  _455
REMARK  175  A    between atoms: _455  and  _456
REMARK  176  A    between atoms: _455  and  _458
REMARK  177  A    between atoms: _458  and  _459
REMARK  178  A    between atoms: _462  and  _464
REMARK  179  A    between atoms: _464  and  _465
REMARK  180  A    between atoms: _464  and  _467
REMARK  181  A    between atoms: _467  and  _468
REMARK  182  A    between atoms: _472  and  _473
REMARK  183  A    between atoms: _479  and  _480
REMARK  184  A    between atoms: _485  and  _487
REMARK  185  A    between atoms: _487  and  _488
REMARK  186  A    between atoms: _487  and  _490
REMARK  187  A    between atoms: _492  and  _494
REMARK  188  A    between atoms: _494  and  _495
REMARK  189  A    between atoms: _494  and  _497
REMARK  190  A    between atoms: _497  and  _498
REMARK  191  A    between atoms: _503  and  _505
REMARK  192  A    between atoms: _505  and  _506
REMARK  193  A    between atoms: _505  and  _508
REMARK  194  A    between atoms: _508  and  _509
REMARK  195  A    between atoms: _512  and  _514
REMARK  196  A    between atoms: _514  and  _515
REMARK  197  A    between atoms: _514  and  _517
REMARK  198  A    between atoms: _520  and  _522
REMARK  199  A    between atoms: _522  and  _523
REMARK  200  A    between atoms: _522  and  _525
REMARK  201  A    between atoms: _525  and  _526
REMARK  202  A    between atoms: _529  and  _531
REMARK  203  A    between atoms: _531  and  _532
REMARK  204  A    between atoms: _531  and  _534
REMARK  205  A    between atoms: _534  and  _535
REMARK  206  A    between atoms: _545  and  _547
REMARK  207  A    between atoms: _547  and  _548
REMARK  208  A    between atoms: _547  and  _550
REMARK  209  A    between atoms: _550  and  _551
REMARK  210  A    between atoms: _551  and  _552
REMARK  211  A    between atoms: _554  and  _556
REMARK  212  A    between atoms: _556  and  _557
REMARK  213  A    between atoms: _556  and  _559
REMARK  214  A    between atoms: _559  and  _560
REMARK  215  A    between atoms: _565  and  _567
REMARK  216  A    between atoms: _567  and  _568
REMARK  217  A    between atoms: _567  and  _570
REMARK  218  A    between atoms: _570  and  _571
REMARK  219  A    between atoms: _571  and  _572
REMARK  220  A    between atoms: _572  and  _573
REMARK                            x       y       z     vdW  Elec       q    Type
REMARK                         _______ _______ _______ _____ _____    ______ ____
ROOT
ATOM      1  O   HOH     1      23.175  10.847  13.186  0.00  0.00    +0.000 OA
ENDROOT
TORSDOF 0
REMARK  Name = ../refined-set-2016/4qj0/4qj0_pocket.pdb
REMARK  220 active torsions:
REMARK  status: ('A' for Active; 'I' for Inactive)
REMARK    1  A    between atoms: _1  and  _5
REMARK    2  A    between atoms: _5  and  _6
REMARK    3  A    between atoms: _5  and  _8
REMARK    4  A    between atoms: _8  and  _9
REMARK    5  A    between atoms: _9  and  _10
REMARK    6  A    between atoms: _10  and  _11
REMARK    7  A    between atoms: _11  and  _12
REMARK    8  A    between atoms: _16  and  _18
REMARK    9  A    between atoms: _18  and  _19
REMARK   10  A    between atoms: _18  and  _21
REMARK   11  A    between atoms: _21  and  _22
REMARK   12  A    between atoms: _32  and  _34
REMARK   13  A    between atoms: _34  and  _35
REMARK   14  A    between atoms: _34  and  _37
REMARK   15  A    between atoms: _37  and  _38
REMARK   16  A    between atoms: _43  and  _44
REMARK   17  A    between atoms: _46  and  _48
REMARK   18  A    between atoms: _48  and  _49
REMARK   19  A    between atoms: _48  and  _51
REMARK   20  A    between atoms: _51  and  _52
REMARK   21  A    between atoms: _57  and  _58
REMARK   22  A    between atoms: _60  and  _62
REMARK   23  A    between atoms: _62  and  _63
REMARK   24  A    between atoms: _62  and  _65
REMARK   25  A    between atoms: _65  and  _66
REMARK   26  A    between atoms: _69  and  _70
REMARK   27  A    between atoms: _75  and  _77
REMARK   28  A    between atoms: _77  and  _78
REMARK   29  A    between atoms: _77  and  _80
REMARK   30  A    between atoms: _80  and  _81
REMARK   31  A    between atoms: _84  and  _86
REMARK   32  A    between atoms: _86  and  _87
REMARK   33  A    between atoms: _86  and  _89
REMARK   34  A    between atoms: _89  and  _90
REMARK   35  A    between atoms: _95  and  _97
REMARK   36  A    between atoms: _97  and  _98
REMARK   37  A    between atoms: _100  and  _102
REMARK   38  A    between atoms: _102  and  _103
REMARK   39  A    between atoms: _102  and  _105
REMARK   40  A    between atoms: _105  and  _106
REMARK   41  A    between atoms: _111  and  _113
REMARK   42  A    between atoms: _113  and  _114
REMARK   43  A    between atoms: _113  and  _116
REMARK   44  A    between atoms: _116  and  _117
REMARK   45  A    between atoms: _119  and  _121
REMARK   46  A    between atoms: _121  and  _122
REMARK   47  A    between atoms: _121  and  _124
REMARK   48  A    between atoms: _127  and  _129
REMARK   49  A    between atoms: _129  and  _130
REMARK   50  A    between atoms: _129  and  _132
REMARK   51  A    between atoms: _132  and  _133
REMARK   52  A    between atoms: _133  and  _134
REMARK   53  A    between atoms: _134  and  _135
REMARK   54  A    between atoms: _135  and  _136
REMARK   55  A    between atoms: _140  and  _142
REMARK   56  A    between atoms: _142  and  _143
REMARK   57  A    between atoms: _142  and  _145
REMARK   58  A    between atoms: _145  and  _146
REMARK   59  A    between atoms: _149  and  _151
REMARK   60  A    between atoms: _151  and  _152
REMARK   61  A    between atoms: _151  and  _154
REMARK   62  A    between atoms: _154  and  _155
REMARK   63  A    between atoms: _160  and  _162
REMARK   64  A    between atoms: _162  and  _163
REMARK   65  A    between atoms: _166  and  _168
REMARK   66  A    between atoms: _168  and  _169
REMARK   67  A    between atoms: _168  and  _171
REMARK   68  A    between atoms: _171  and  _172
REMARK   69  A    between atoms: _175  and  _177
REMARK   70  A    between atoms: _177  and  _178
REMARK   71  A    between atoms: _177  and  _180
REMARK   72  A    between atoms: _180  and  _181
REMARK   73  A    between atoms: _181  and  _182
REMARK   74  A    between atoms: _187  and  _189
REMARK   75  A    between atoms: _189  and  _190
REMARK   76  A    between atoms: _189  and  _192
REMARK   77  A    between atoms: _192  and  _193
REMARK   78  A    between atoms: _196  and  _198
REMARK   79  A    between atoms: _209  and  _212
REMARK   80  A    between atoms: _212  and  _213
REMARK   81  A    between atoms: _218  and  _219
REMARK   82  A    between atoms: _227  and  _229
REMARK   83  A    between atoms: _229  and  _230
REMARK   84  A    between atoms: _229  and  _232
REMARK   85  A    between atoms: _232  and  _233
REMARK   86  A    between atoms: _243  and  _245
REMARK   87  A    between atoms: _245  and  _246
REMARK   88  A    between atoms: _245  and  _248
REMARK   89  A    between atoms: _248  and  _249
REMARK   90  A    between atoms: _249  and  _250
REMARK   91  A    between atoms: _253  and  _255
REMARK   92  A    between atoms: _255  and  _256
REMARK   93  A    between atoms: _255  and  _258
REMARK   94  A    between atoms: _258  and  _259
REMARK   95  A    between atoms: _264  and  _266
REMARK   96  A    between atoms: _266  and  _267
REMARK   97  A    between atoms: _266  and  _269
REMARK   98  A    between atoms: _269  and  _270
REMARK   99  A    between atoms: _270  and  _271
REMARK  100  A    between atoms: _274  and  _276
REMARK  101  A    between atoms: _276  and  _277
REMARK  102  A    between atoms: _276  and  _279
REMARK  103  A    between atoms: _279  and  _280
REMARK  104  A    between atoms: _283  and  _285
REMARK  105  A    between atoms: _285  and  _286
REMARK  106  A    between atoms: _285  and  _288
REMARK  107  A    between atoms: _288  and  _289
REMARK  108  A    between atoms: _290  and  ZN_582
REMARK  109  A    between atoms: _294  and  _296
REMARK  110  A    between atoms: _296  and  _297
REMARK  111  A    between atoms: _296  and  _299
REMARK  112  A    between atoms: _299  and  _300
REMARK  113  A    between atoms: _303  and  _305
REMARK  114  A    between atoms: _305  and  _306
REMARK  115  A    between atoms: _305  and  _308
REMARK  116  A    between atoms: _311  and  _313
REMARK  117  A    between atoms: _313  and  _314
REMARK  118  A    between atoms: _313  and  _316
REMARK  119  A    between atoms: _316  and  _317
REMARK  120  A    between atoms: _322  and  _324
REMARK  121  A    between atoms: _324  and  _325
REMARK  122  A    between atoms: _324  and  _327
REMARK  123  A    between atoms: _327  and  _328
REMARK  124  A    between atoms: _333  and  _334
REMARK  125  A    between atoms: _336  and  _338
REMARK  126  A    between atoms: _338  and  _339
REMARK  127  A    between atoms: _338  and  _341
REMARK  128  A    between atoms: _341  and  _342
REMARK  129  A    between atoms: _345  and  _347
REMARK  130  A    between atoms: _347  and  _348
REMARK  131  A    between atoms: _351  and  _353
REMARK  132  A    between atoms: _353  and  _354
REMARK  133  A    between atoms: _353  and  _356
REMARK  134  A    between atoms: _356  and  _357
REMARK  135  A    between atoms: _359  and  _361
REMARK  136  A    between atoms: _361  and  _362
REMARK  137  A    between atoms: _361  and  _364
REMARK  138  A    between atoms: _364  and  _365
REMARK  139  A    between atoms: _368  and  _370
REMARK  140  A    between atoms: _370  and  _371
REMARK  141  A    between atoms: _374  and  _376
REMARK  142  A    between atoms: _376  and  _377
REMARK  143  A    between atoms: _376  and  _379
REMARK  144  A    between atoms: _379  and  _380
REMARK  145  A    between atoms: _382  and  _384
REMARK  146  A    between atoms: _384  and  _385
REMARK  147  A    between atoms: _384  and  _387
REMARK  148  A    between atoms: _387  and  _388
REMARK  149  A    between atoms: _393  and  _395
REMARK  150  A    between atoms: _395  and  _396
REMARK  151  A    between atoms: _398  and  _400
REMARK  152  A    between atoms: _400  and  _401
REMARK  153  A    between atoms: _400  and  _403
REMARK  154  A    between atoms: _403  and  _404
REMARK  155  A    between atoms: _407  and  _409
REMARK  156  A    between atoms: _409  and  _410
REMARK  157  A    between atoms: _413  and  _415
REMARK  158  A    between atoms: _415  and  _416
REMARK  159  A    between atoms: _415  and  _418
REMARK  160  A    between atoms: _421  and  _423
REMARK  161  A    between atoms: _423  and  _424
REMARK  162  A    between atoms: _423  and  _426
REMARK  163  A    between atoms: _426  and  _427
REMARK  164  A    between atoms: _430  and  _432
REMARK  165  A    between atoms: _432  and  _433
REMARK  166  A    between atoms: _436  and  _438
REMARK  167  A    between atoms: _438  and  _439
REMARK  168  A    between atoms: _438  and  _441
REMARK  169  A    between atoms: _441  and  _442
REMARK  170  A    between atoms: _444  and  _446
REMARK  171  A    between atoms: _446  and  _447
REMARK  172  A    between atoms: _446  and  _449
REMARK  173  A    between atoms: _449  and  _450
REMARK  174  A    between atoms: _453  and  _455
REMARK  175  A    between atoms: _455  and  _456
REMARK  176  A    between atoms: _455  and  _458
REMARK  177  A    between atoms: _458  and  _459
REMARK  178  A    between atoms: _462  and  _464
REMARK  179  A    between atoms: _464  and  _465
REMARK  180  A    between atoms: _464  and  _467
REMARK  181  A    between atoms: _467  and  _468
REMARK  182  A    between atoms: _472  and  _473
REMARK  183  A    between atoms: _479  and  _480
REMARK  184  A    between atoms: _485  and  _487
REMARK  185  A    between atoms: _487  and  _488
REMARK  186  A    between atoms: _487  and  _490
REMARK  187  A    between atoms: _492  and  _494
REMARK  188  A    between atoms: _494  and  _495
REMARK  189  A    between atoms: _494  and  _497
REMARK  190  A    between atoms: _497  and  _498
REMARK  191  A    between atoms: _503  and  _505
REMARK  192  A    between atoms: _505  and  _506
REMARK  193  A    between atoms: _505  and  _508
REMARK  194  A    between atoms: _508  and  _509
REMARK  195  A    between atoms: _512  and  _514
REMARK  196  A    between atoms: _514  and  _515
REMARK  197  A    between atoms: _514  and  _517
REMARK  198  A    between atoms: _520  and  _522
REMARK  199  A    between atoms: _522  and  _523
REMARK  200  A    between atoms: _522  and  _525
REMARK  201  A    between atoms: _525  and  _526
REMARK  202  A    between atoms: _529  and  _531
REMARK  203  A    between atoms: _531  and  _532
REMARK  204  A    between atoms: _531  and  _534
REMARK  205  A    between atoms: _534  and  _535
REMARK  206  A    between atoms: _545  and  _547
REMARK  207  A    between atoms: _547  and  _548
REMARK  208  A    between atoms: _547  and  _550
REMARK  209  A    between atoms: _550  and  _551
REMARK  210  A    between atoms: _551  and  _552
REMARK  211  A    between atoms: _554  and  _556
REMARK  212  A    between atoms: _556  and  _557
REMARK  213  A    between atoms: _556  and  _559
REMARK  214  A    between atoms: _559  and  _560
REMARK  215  A    between atoms: _565  and  _567
REMARK  216  A    between atoms: _567  and  _568
REMARK  217  A    between atoms: _567  and  _570
REMARK  218  A    between atoms: _570  and  _571
REMARK  219  A    between atoms: _571  and  _572
REMARK  220  A    between atoms: _572  and  _573
REMARK                            x       y       z     vdW  Elec       q    Type
REMARK                         _______ _______ _______ _____ _____    ______ ____
ROOT
ATOM      1  O   HOH     1      36.813   7.516   9.988  0.00  0.00    +0.000 OA
ENDROOT
TORSDOF 0
REMARK  Name = ../refined-set-2016/4qj0/4qj0_pocket.pdb
REMARK  220 active torsions:
REMARK  status: ('A' for Active; 'I' for Inactive)
REMARK    1  A    between atoms: _1  and  _5
REMARK    2  A    between atoms: _5  and  _6
REMARK    3  A    between atoms: _5  and  _8
REMARK    4  A    between atoms: _8  and  _9
REMARK    5  A    between atoms: _9  and  _10
REMARK    6  A    between atoms: _10  and  _11
REMARK    7  A    between atoms: _11  and  _12
REMARK    8  A    between atoms: _16  and  _18
REMARK    9  A    between atoms: _18  and  _19
REMARK   10  A    between atoms: _18  and  _21
REMARK   11  A    between atoms: _21  and  _22
REMARK   12  A    between atoms: _32  and  _34
REMARK   13  A    between atoms: _34  and  _35
REMARK   14  A    between atoms: _34  and  _37
REMARK   15  A    between atoms: _37  and  _38
REMARK   16  A    between atoms: _43  and  _44
REMARK   17  A    between atoms: _46  and  _48
REMARK   18  A    between atoms: _48  and  _49
REMARK   19  A    between atoms: _48  and  _51
REMARK   20  A    between atoms: _51  and  _52
REMARK   21  A    between atoms: _57  and  _58
REMARK   22  A    between atoms: _60  and  _62
REMARK   23  A    between atoms: _62  and  _63
REMARK   24  A    between atoms: _62  and  _65
REMARK   25  A    between atoms: _65  and  _66
REMARK   26  A    between atoms: _69  and  _70
REMARK   27  A    between atoms: _75  and  _77
REMARK   28  A    between atoms: _77  and  _78
REMARK   29  A    between atoms: _77  and  _80
REMARK   30  A    between atoms: _80  and  _81
REMARK   31  A    between atoms: _84  and  _86
REMARK   32  A    between atoms: _86  and  _87
REMARK   33  A    between atoms: _86  and  _89
REMARK   34  A    between atoms: _89  and  _90
REMARK   35  A    between atoms: _95  and  _97
REMARK   36  A    between atoms: _97  and  _98
REMARK   37  A    between atoms: _100  and  _102
REMARK   38  A    between atoms: _102  and  _103
REMARK   39  A    between atoms: _102  and  _105
REMARK   40  A    between atoms: _105  and  _106
REMARK   41  A    between atoms: _111  and  _113
REMARK   42  A    between atoms: _113  and  _114
REMARK   43  A    between atoms: _113  and  _116
REMARK   44  A    between atoms: _116  and  _117
REMARK   45  A    between atoms: _119  and  _121
REMARK   46  A    between atoms: _121  and  _122
REMARK   47  A    between atoms: _121  and  _124
REMARK   48  A    between atoms: _127  and  _129
REMARK   49  A    between atoms: _129  and  _130
REMARK   50  A    between atoms: _129  and  _132
REMARK   51  A    between atoms: _132  and  _133
REMARK   52  A    between atoms: _133  and  _134
REMARK   53  A    between atoms: _134  and  _135
REMARK   54  A    between atoms: _135  and  _136
REMARK   55  A    between atoms: _140  and  _142
REMARK   56  A    between atoms: _142  and  _143
REMARK   57  A    between atoms: _142  and  _145
REMARK   58  A    between atoms: _145  and  _146
REMARK   59  A    between atoms: _149  and  _151
REMARK   60  A    between atoms: _151  and  _152
REMARK   61  A    between atoms: _151  and  _154
REMARK   62  A    between atoms: _154  and  _155
REMARK   63  A    between atoms: _160  and  _162
REMARK   64  A    between atoms: _162  and  _163
REMARK   65  A    between atoms: _166  and  _168
REMARK   66  A    between atoms: _168  and  _169
REMARK   67  A    between atoms: _168  and  _171
REMARK   68  A    between atoms: _171  and  _172
REMARK   69  A    between atoms: _175  and  _177
REMARK   70  A    between atoms: _177  and  _178
REMARK   71  A    between atoms: _177  and  _180
REMARK   72  A    between atoms: _180  and  _181
REMARK   73  A    between atoms: _181  and  _182
REMARK   74  A    between atoms: _187  and  _189
REMARK   75  A    between atoms: _189  and  _190
REMARK   76  A    between atoms: _189  and  _192
REMARK   77  A    between atoms: _192  and  _193
REMARK   78  A    between atoms: _196  and  _198
REMARK   79  A    between atoms: _209  and  _212
REMARK   80  A    between atoms: _212  and  _213
REMARK   81  A    between atoms: _218  and  _219
REMARK   82  A    between atoms: _227  and  _229
REMARK   83  A    between atoms: _229  and  _230
REMARK   84  A    between atoms: _229  and  _232
REMARK   85  A    between atoms: _232  and  _233
REMARK   86  A    between atoms: _243  and  _245
REMARK   87  A    between atoms: _245  and  _246
REMARK   88  A    between atoms: _245  and  _248
REMARK   89  A    between atoms: _248  and  _249
REMARK   90  A    between atoms: _249  and  _250
REMARK   91  A    between atoms: _253  and  _255
REMARK   92  A    between atoms: _255  and  _256
REMARK   93  A    between atoms: _255  and  _258
REMARK   94  A    between atoms: _258  and  _259
REMARK   95  A    between atoms: _264  and  _266
REMARK   96  A    between atoms: _266  and  _267
REMARK   97  A    between atoms: _266  and  _269
REMARK   98  A    between atoms: _269  and  _270
REMARK   99  A    between atoms: _270  and  _271
REMARK  100  A    between atoms: _274  and  _276
REMARK  101  A    between atoms: _276  and  _277
REMARK  102  A    between atoms: _276  and  _279
REMARK  103  A    between atoms: _279  and  _280
REMARK  104  A    between atoms: _283  and  _285
REMARK  105  A    between atoms: _285  and  _286
REMARK  106  A    between atoms: _285  and  _288
REMARK  107  A    between atoms: _288  and  _289
REMARK  108  A    between atoms: _290  and  ZN_582
REMARK  109  A    between atoms: _294  and  _296
REMARK  110  A    between atoms: _296  and  _297
REMARK  111  A    between atoms: _296  and  _299
REMARK  112  A    between atoms: _299  and  _300
REMARK  113  A    between atoms: _303  and  _305
REMARK  114  A    between atoms: _305  and  _306
REMARK  115  A    between atoms: _305  and  _308
REMARK  116  A    between atoms: _311  and  _313
REMARK  117  A    between atoms: _313  and  _314
REMARK  118  A    between atoms: _313  and  _316
REMARK  119  A    between atoms: _316  and  _317
REMARK  120  A    between atoms: _322  and  _324
REMARK  121  A    between atoms: _324  and  _325
REMARK  122  A    between atoms: _324  and  _327
REMARK  123  A    between atoms: _327  and  _328
REMARK  124  A    between atoms: _333  and  _334
REMARK  125  A    between atoms: _336  and  _338
REMARK  126  A    between atoms: _338  and  _339
REMARK  127  A    between atoms: _338  and  _341
REMARK  128  A    between atoms: _341  and  _342
REMARK  129  A    between atoms: _345  and  _347
REMARK  130  A    between atoms: _347  and  _348
REMARK  131  A    between atoms: _351  and  _353
REMARK  132  A    between atoms: _353  and  _354
REMARK  133  A    between atoms: _353  and  _356
REMARK  134  A    between atoms: _356  and  _357
REMARK  135  A    between atoms: _359  and  _361
REMARK  136  A    between atoms: _361  and  _362
REMARK  137  A    between atoms: _361  and  _364
REMARK  138  A    between atoms: _364  and  _365
REMARK  139  A    between atoms: _368  and  _370
REMARK  140  A    between atoms: _370  and  _371
REMARK  141  A    between atoms: _374  and  _376
REMARK  142  A    between atoms: _376  and  _377
REMARK  143  A    between atoms: _376  and  _379
REMARK  144  A    between atoms: _379  and  _380
REMARK  145  A    between atoms: _382  and  _384
REMARK  146  A    between atoms: _384  and  _385
REMARK  147  A    between atoms: _384  and  _387
REMARK  148  A    between atoms: _387  and  _388
REMARK  149  A    between atoms: _393  and  _395
REMARK  150  A    between atoms: _395  and  _396
REMARK  151  A    between atoms: _398  and  _400
REMARK  152  A    between atoms: _400  and  _401
REMARK  153  A    between atoms: _400  and  _403
REMARK  154  A    between atoms: _403  and  _404
REMARK  155  A    between atoms: _407  and  _409
REMARK  156  A    between atoms: _409  and  _410
REMARK  157  A    between atoms: _413  and  _415
REMARK  158  A    between atoms: _415  and  _416
REMARK  159  A    between atoms: _415  and  _418
REMARK  160  A    between atoms: _421  and  _423
REMARK  161  A    between atoms: _423  and  _424
REMARK  162  A    between atoms: _423  and  _426
REMARK  163  A    between atoms: _426  and  _427
REMARK  164  A    between atoms: _430  and  _432
REMARK  165  A    between atoms: _432  and  _433
REMARK  166  A    between atoms: _436  and  _438
REMARK  167  A    between atoms: _438  and  _439
REMARK  168  A    between atoms: _438  and  _441
REMARK  169  A    between atoms: _441  and  _442
REMARK  170  A    between atoms: _444  and  _446
REMARK  171  A    between atoms: _446  and  _447
REMARK  172  A    between atoms: _446  and  _449
REMARK  173  A    between atoms: _449  and  _450
REMARK  174  A    between atoms: _453  and  _455
REMARK  175  A    between atoms: _455  and  _456
REMARK  176  A    between atoms: _455  and  _458
REMARK  177  A    between atoms: _458  and  _459
REMARK  178  A    between atoms: _462  and  _464
REMARK  179  A    between atoms: _464  and  _465
REMARK  180  A    between atoms: _464  and  _467
REMARK  181  A    between atoms: _467  and  _468
REMARK  182  A    between atoms: _472  and  _473
REMARK  183  A    between atoms: _479  and  _480
REMARK  184  A    between atoms: _485  and  _487
REMARK  185  A    between atoms: _487  and  _488
REMARK  186  A    between atoms: _487  and  _490
REMARK  187  A    between atoms: _492  and  _494
REMARK  188  A    between atoms: _494  and  _495
REMARK  189  A    between atoms: _494  and  _497
REMARK  190  A    between atoms: _497  and  _498
REMARK  191  A    between atoms: _503  and  _505
REMARK  192  A    between atoms: _505  and  _506
REMARK  193  A    between atoms: _505  and  _508
REMARK  194  A    between atoms: _508  and  _509
REMARK  195  A    between atoms: _512  and  _514
REMARK  196  A    between atoms: _514  and  _515
REMARK  197  A    between atoms: _514  and  _517
REMARK  198  A    between atoms: _520  and  _522
REMARK  199  A    between atoms: _522  and  _523
REMARK  200  A    between atoms: _522  and  _525
REMARK  201  A    between atoms: _525  and  _526
REMARK  202  A    between atoms: _529  and  _531
REMARK  203  A    between atoms: _531  and  _532
REMARK  204  A    between atoms: _531  and  _534
REMARK  205  A    between atoms: _534  and  _535
REMARK  206  A    between atoms: _545  and  _547
REMARK  207  A    between atoms: _547  and  _548
REMARK  208  A    between atoms: _547  and  _550
REMARK  209  A    between atoms: _550  and  _551
REMARK  210  A    between atoms: _551  and  _552
REMARK  211  A    between atoms: _554  and  _556
REMARK  212  A    between atoms: _556  and  _557
REMARK  213  A    between atoms: _556  and  _559
REMARK  214  A    between atoms: _559  and  _560
REMARK  215  A    between atoms: _565  and  _567
REMARK  216  A    between atoms: _567  and  _568
REMARK  217  A    between atoms: _567  and  _570
REMARK  218  A    between atoms: _570  and  _571
REMARK  219  A    between atoms: _571  and  _572
REMARK  220  A    between atoms: _572  and  _573
REMARK                            x       y       z     vdW  Elec       q    Type
REMARK                         _______ _______ _______ _____ _____    ______ ____
ROOT
ATOM      1  O   HOH     1      35.282  10.133  10.599  0.00  0.00    +0.000 OA
ENDROOT
TORSDOF 0
REMARK  Name = ../refined-set-2016/4qj0/4qj0_pocket.pdb
REMARK  220 active torsions:
REMARK  status: ('A' for Active; 'I' for Inactive)
REMARK    1  A    between atoms: _1  and  _5
REMARK    2  A    between atoms: _5  and  _6
REMARK    3  A    between atoms: _5  and  _8
REMARK    4  A    between atoms: _8  and  _9
REMARK    5  A    between atoms: _9  and  _10
REMARK    6  A    between atoms: _10  and  _11
REMARK    7  A    between atoms: _11  and  _12
REMARK    8  A    between atoms: _16  and  _18
REMARK    9  A    between atoms: _18  and  _19
REMARK   10  A    between atoms: _18  and  _21
REMARK   11  A    between atoms: _21  and  _22
REMARK   12  A    between atoms: _32  and  _34
REMARK   13  A    between atoms: _34  and  _35
REMARK   14  A    between atoms: _34  and  _37
REMARK   15  A    between atoms: _37  and  _38
REMARK   16  A    between atoms: _43  and  _44
REMARK   17  A    between atoms: _46  and  _48
REMARK   18  A    between atoms: _48  and  _49
REMARK   19  A    between atoms: _48  and  _51
REMARK   20  A    between atoms: _51  and  _52
REMARK   21  A    between atoms: _57  and  _58
REMARK   22  A    between atoms: _60  and  _62
REMARK   23  A    between atoms: _62  and  _63
REMARK   24  A    between atoms: _62  and  _65
REMARK   25  A    between atoms: _65  and  _66
REMARK   26  A    between atoms: _69  and  _70
REMARK   27  A    between atoms: _75  and  _77
REMARK   28  A    between atoms: _77  and  _78
REMARK   29  A    between atoms: _77  and  _80
REMARK   30  A    between atoms: _80  and  _81
REMARK   31  A    between atoms: _84  and  _86
REMARK   32  A    between atoms: _86  and  _87
REMARK   33  A    between atoms: _86  and  _89
REMARK   34  A    between atoms: _89  and  _90
REMARK   35  A    between atoms: _95  and  _97
REMARK   36  A    between atoms: _97  and  _98
REMARK   37  A    between atoms: _100  and  _102
REMARK   38  A    between atoms: _102  and  _103
REMARK   39  A    between atoms: _102  and  _105
REMARK   40  A    between atoms: _105  and  _106
REMARK   41  A    between atoms: _111  and  _113
REMARK   42  A    between atoms: _113  and  _114
REMARK   43  A    between atoms: _113  and  _116
REMARK   44  A    between atoms: _116  and  _117
REMARK   45  A    between atoms: _119  and  _121
REMARK   46  A    between atoms: _121  and  _122
REMARK   47  A    between atoms: _121  and  _124
REMARK   48  A    between atoms: _127  and  _129
REMARK   49  A    between atoms: _129  and  _130
REMARK   50  A    between atoms: _129  and  _132
REMARK   51  A    between atoms: _132  and  _133
REMARK   52  A    between atoms: _133  and  _134
REMARK   53  A    between atoms: _134  and  _135
REMARK   54  A    between atoms: _135  and  _136
REMARK   55  A    between atoms: _140  and  _142
REMARK   56  A    between atoms: _142  and  _143
REMARK   57  A    between atoms: _142  and  _145
REMARK   58  A    between atoms: _145  and  _146
REMARK   59  A    between atoms: _149  and  _151
REMARK   60  A    between atoms: _151  and  _152
REMARK   61  A    between atoms: _151  and  _154
REMARK   62  A    between atoms: _154  and  _155
REMARK   63  A    between atoms: _160  and  _162
REMARK   64  A    between atoms: _162  and  _163
REMARK   65  A    between atoms: _166  and  _168
REMARK   66  A    between atoms: _168  and  _169
REMARK   67  A    between atoms: _168  and  _171
REMARK   68  A    between atoms: _171  and  _172
REMARK   69  A    between atoms: _175  and  _177
REMARK   70  A    between atoms: _177  and  _178
REMARK   71  A    between atoms: _177  and  _180
REMARK   72  A    between atoms: _180  and  _181
REMARK   73  A    between atoms: _181  and  _182
REMARK   74  A    between atoms: _187  and  _189
REMARK   75  A    between atoms: _189  and  _190
REMARK   76  A    between atoms: _189  and  _192
REMARK   77  A    between atoms: _192  and  _193
REMARK   78  A    between atoms: _196  and  _198
REMARK   79  A    between atoms: _209  and  _212
REMARK   80  A    between atoms: _212  and  _213
REMARK   81  A    between atoms: _218  and  _219
REMARK   82  A    between atoms: _227  and  _229
REMARK   83  A    between atoms: _229  and  _230
REMARK   84  A    between atoms: _229  and  _232
REMARK   85  A    between atoms: _232  and  _233
REMARK   86  A    between atoms: _243  and  _245
REMARK   87  A    between atoms: _245  and  _246
REMARK   88  A    between atoms: _245  and  _248
REMARK   89  A    between atoms: _248  and  _249
REMARK   90  A    between atoms: _249  and  _250
REMARK   91  A    between atoms: _253  and  _255
REMARK   92  A    between atoms: _255  and  _256
REMARK   93  A    between atoms: _255  and  _258
REMARK   94  A    between atoms: _258  and  _259
REMARK   95  A    between atoms: _264  and  _266
REMARK   96  A    between atoms: _266  and  _267
REMARK   97  A    between atoms: _266  and  _269
REMARK   98  A    between atoms: _269  and  _270
REMARK   99  A    between atoms: _270  and  _271
REMARK  100  A    between atoms: _274  and  _276
REMARK  101  A    between atoms: _276  and  _277
REMARK  102  A    between atoms: _276  and  _279
REMARK  103  A    between atoms: _279  and  _280
REMARK  104  A    between atoms: _283  and  _285
REMARK  105  A    between atoms: _285  and  _286
REMARK  106  A    between atoms: _285  and  _288
REMARK  107  A    between atoms: _288  and  _289
REMARK  108  A    between atoms: _290  and  ZN_582
REMARK  109  A    between atoms: _294  and  _296
REMARK  110  A    between atoms: _296  and  _297
REMARK  111  A    between atoms: _296  and  _299
REMARK  112  A    between atoms: _299  and  _300
REMARK  113  A    between atoms: _303  and  _305
REMARK  114  A    between atoms: _305  and  _306
REMARK  115  A    between atoms: _305  and  _308
REMARK  116  A    between atoms: _311  and  _313
REMARK  117  A    between atoms: _313  and  _314
REMARK  118  A    between atoms: _313  and  _316
REMARK  119  A    between atoms: _316  and  _317
REMARK  120  A    between atoms: _322  and  _324
REMARK  121  A    between atoms: _324  and  _325
REMARK  122  A    between atoms: _324  and  _327
REMARK  123  A    between atoms: _327  and  _328
REMARK  124  A    between atoms: _333  and  _334
REMARK  125  A    between atoms: _336  and  _338
REMARK  126  A    between atoms: _338  and  _339
REMARK  127  A    between atoms: _338  and  _341
REMARK  128  A    between atoms: _341  and  _342
REMARK  129  A    between atoms: _345  and  _347
REMARK  130  A    between atoms: _347  and  _348
REMARK  131  A    between atoms: _351  and  _353
REMARK  132  A    between atoms: _353  and  _354
REMARK  133  A    between atoms: _353  and  _356
REMARK  134  A    between atoms: _356  and  _357
REMARK  135  A    between atoms: _359  and  _361
REMARK  136  A    between atoms: _361  and  _362
REMARK  137  A    between atoms: _361  and  _364
REMARK  138  A    between atoms: _364  and  _365
REMARK  139  A    between atoms: _368  and  _370
REMARK  140  A    between atoms: _370  and  _371
REMARK  141  A    between atoms: _374  and  _376
REMARK  142  A    between atoms: _376  and  _377
REMARK  143  A    between atoms: _376  and  _379
REMARK  144  A    between atoms: _379  and  _380
REMARK  145  A    between atoms: _382  and  _384
REMARK  146  A    between atoms: _384  and  _385
REMARK  147  A    between atoms: _384  and  _387
REMARK  148  A    between atoms: _387  and  _388
REMARK  149  A    between atoms: _393  and  _395
REMARK  150  A    between atoms: _395  and  _396
REMARK  151  A    between atoms: _398  and  _400
REMARK  152  A    between atoms: _400  and  _401
REMARK  153  A    between atoms: _400  and  _403
REMARK  154  A    between atoms: _403  and  _404
REMARK  155  A    between atoms: _407  and  _409
REMARK  156  A    between atoms: _409  and  _410
REMARK  157  A    between atoms: _413  and  _415
REMARK  158  A    between atoms: _415  and  _416
REMARK  159  A    between atoms: _415  and  _418
REMARK  160  A    between atoms: _421  and  _423
REMARK  161  A    between atoms: _423  and  _424
REMARK  162  A    between atoms: _423  and  _426
REMARK  163  A    between atoms: _426  and  _427
REMARK  164  A    between atoms: _430  and  _432
REMARK  165  A    between atoms: _432  and  _433
REMARK  166  A    between atoms: _436  and  _438
REMARK  167  A    between atoms: _438  and  _439
REMARK  168  A    between atoms: _438  and  _441
REMARK  169  A    between atoms: _441  and  _442
REMARK  170  A    between atoms: _444  and  _446
REMARK  171  A    between atoms: _446  and  _447
REMARK  172  A    between atoms: _446  and  _449
REMARK  173  A    between atoms: _449  and  _450
REMARK  174  A    between atoms: _453  and  _455
REMARK  175  A    between atoms: _455  and  _456
REMARK  176  A    between atoms: _455  and  _458
REMARK  177  A    between atoms: _458  and  _459
REMARK  178  A    between atoms: _462  and  _464
REMARK  179  A    between atoms: _464  and  _465
REMARK  180  A    between atoms: _464  and  _467
REMARK  181  A    between atoms: _467  and  _468
REMARK  182  A    between atoms: _472  and  _473
REMARK  183  A    between atoms: _479  and  _480
REMARK  184  A    between atoms: _485  and  _487
REMARK  185  A    between atoms: _487  and  _488
REMARK  186  A    between atoms: _487  and  _490
REMARK  187  A    between atoms: _492  and  _494
REMARK  188  A    between atoms: _494  and  _495
REMARK  189  A    between atoms: _494  and  _497
REMARK  190  A    between atoms: _497  and  _498
REMARK  191  A    between atoms: _503  and  _505
REMARK  192  A    between atoms: _505  and  _506
REMARK  193  A    between atoms: _505  and  _508
REMARK  194  A    between atoms: _508  and  _509
REMARK  195  A    between atoms: _512  and  _514
REMARK  196  A    between atoms: _514  and  _515
REMARK  197  A    between atoms: _514  and  _517
REMARK  198  A    between atoms: _520  and  _522
REMARK  199  A    between atoms: _522  and  _523
REMARK  200  A    between atoms: _522  and  _525
REMARK  201  A    between atoms: _525  and  _526
REMARK  202  A    between atoms: _529  and  _531
REMARK  203  A    between atoms: _531  and  _532
REMARK  204  A    between atoms: _531  and  _534
REMARK  205  A    between atoms: _534  and  _535
REMARK  206  A    between atoms: _545  and  _547
REMARK  207  A    between atoms: _547  and  _548
REMARK  208  A    between atoms: _547  and  _550
REMARK  209  A    between atoms: _550  and  _551
REMARK  210  A    between atoms: _551  and  _552
REMARK  211  A    between atoms: _554  and  _556
REMARK  212  A    between atoms: _556  and  _557
REMARK  213  A    between atoms: _556  and  _559
REMARK  214  A    between atoms: _559  and  _560
REMARK  215  A    between atoms: _565  and  _567
REMARK  216  A    between atoms: _567  and  _568
REMARK  217  A    between atoms: _567  and  _570
REMARK  218  A    between atoms: _570  and  _571
REMARK  219  A    between atoms: _571  and  _572
REMARK  220  A    between atoms: _572  and  _573
REMARK                            x       y       z     vdW  Elec       q    Type
REMARK                         _______ _______ _______ _____ _____    ______ ____
ROOT
ATOM      1  O   HOH     1      32.572   6.304  13.104  0.00  0.00    +0.000 OA
ENDROOT
TORSDOF 0
REMARK  Name = ../refined-set-2016/4qj0/4qj0_pocket.pdb
REMARK  220 active torsions:
REMARK  status: ('A' for Active; 'I' for Inactive)
REMARK    1  A    between atoms: _1  and  _5
REMARK    2  A    between atoms: _5  and  _6
REMARK    3  A    between atoms: _5  and  _8
REMARK    4  A    between atoms: _8  and  _9
REMARK    5  A    between atoms: _9  and  _10
REMARK    6  A    between atoms: _10  and  _11
REMARK    7  A    between atoms: _11  and  _12
REMARK    8  A    between atoms: _16  and  _18
REMARK    9  A    between atoms: _18  and  _19
REMARK   10  A    between atoms: _18  and  _21
REMARK   11  A    between atoms: _21  and  _22
REMARK   12  A    between atoms: _32  and  _34
REMARK   13  A    between atoms: _34  and  _35
REMARK   14  A    between atoms: _34  and  _37
REMARK   15  A    between atoms: _37  and  _38
REMARK   16  A    between atoms: _43  and  _44
REMARK   17  A    between atoms: _46  and  _48
REMARK   18  A    between atoms: _48  and  _49
REMARK   19  A    between atoms: _48  and  _51
REMARK   20  A    between atoms: _51  and  _52
REMARK   21  A    between atoms: _57  and  _58
REMARK   22  A    between atoms: _60  and  _62
REMARK   23  A    between atoms: _62  and  _63
REMARK   24  A    between atoms: _62  and  _65
REMARK   25  A    between atoms: _65  and  _66
REMARK   26  A    between atoms: _69  and  _70
REMARK   27  A    between atoms: _75  and  _77
REMARK   28  A    between atoms: _77  and  _78
REMARK   29  A    between atoms: _77  and  _80
REMARK   30  A    between atoms: _80  and  _81
REMARK   31  A    between atoms: _84  and  _86
REMARK   32  A    between atoms: _86  and  _87
REMARK   33  A    between atoms: _86  and  _89
REMARK   34  A    between atoms: _89  and  _90
REMARK   35  A    between atoms: _95  and  _97
REMARK   36  A    between atoms: _97  and  _98
REMARK   37  A    between atoms: _100  and  _102
REMARK   38  A    between atoms: _102  and  _103
REMARK   39  A    between atoms: _102  and  _105
REMARK   40  A    between atoms: _105  and  _106
REMARK   41  A    between atoms: _111  and  _113
REMARK   42  A    between atoms: _113  and  _114
REMARK   43  A    between atoms: _113  and  _116
REMARK   44  A    between atoms: _116  and  _117
REMARK   45  A    between atoms: _119  and  _121
REMARK   46  A    between atoms: _121  and  _122
REMARK   47  A    between atoms: _121  and  _124
REMARK   48  A    between atoms: _127  and  _129
REMARK   49  A    between atoms: _129  and  _130
REMARK   50  A    between atoms: _129  and  _132
REMARK   51  A    between atoms: _132  and  _133
REMARK   52  A    between atoms: _133  and  _134
REMARK   53  A    between atoms: _134  and  _135
REMARK   54  A    between atoms: _135  and  _136
REMARK   55  A    between atoms: _140  and  _142
REMARK   56  A    between atoms: _142  and  _143
REMARK   57  A    between atoms: _142  and  _145
REMARK   58  A    between atoms: _145  and  _146
REMARK   59  A    between atoms: _149  and  _151
REMARK   60  A    between atoms: _151  and  _152
REMARK   61  A    between atoms: _151  and  _154
REMARK   62  A    between atoms: _154  and  _155
REMARK   63  A    between atoms: _160  and  _162
REMARK   64  A    between atoms: _162  and  _163
REMARK   65  A    between atoms: _166  and  _168
REMARK   66  A    between atoms: _168  and  _169
REMARK   67  A    between atoms: _168  and  _171
REMARK   68  A    between atoms: _171  and  _172
REMARK   69  A    between atoms: _175  and  _177
REMARK   70  A    between atoms: _177  and  _178
REMARK   71  A    between atoms: _177  and  _180
REMARK   72  A    between atoms: _180  and  _181
REMARK   73  A    between atoms: _181  and  _182
REMARK   74  A    between atoms: _187  and  _189
REMARK   75  A    between atoms: _189  and  _190
REMARK   76  A    between atoms: _189  and  _192
REMARK   77  A    between atoms: _192  and  _193
REMARK   78  A    between atoms: _196  and  _198
REMARK   79  A    between atoms: _209  and  _212
REMARK   80  A    between atoms: _212  and  _213
REMARK   81  A    between atoms: _218  and  _219
REMARK   82  A    between atoms: _227  and  _229
REMARK   83  A    between atoms: _229  and  _230
REMARK   84  A    between atoms: _229  and  _232
REMARK   85  A    between atoms: _232  and  _233
REMARK   86  A    between atoms: _243  and  _245
REMARK   87  A    between atoms: _245  and  _246
REMARK   88  A    between atoms: _245  and  _248
REMARK   89  A    between atoms: _248  and  _249
REMARK   90  A    between atoms: _249  and  _250
REMARK   91  A    between atoms: _253  and  _255
REMARK   92  A    between atoms: _255  and  _256
REMARK   93  A    between atoms: _255  and  _258
REMARK   94  A    between atoms: _258  and  _259
REMARK   95  A    between atoms: _264  and  _266
REMARK   96  A    between atoms: _266  and  _267
REMARK   97  A    between atoms: _266  and  _269
REMARK   98  A    between atoms: _269  and  _270
REMARK   99  A    between atoms: _270  and  _271
REMARK  100  A    between atoms: _274  and  _276
REMARK  101  A    between atoms: _276  and  _277
REMARK  102  A    between atoms: _276  and  _279
REMARK  103  A    between atoms: _279  and  _280
REMARK  104  A    between atoms: _283  and  _285
REMARK  105  A    between atoms: _285  and  _286
REMARK  106  A    between atoms: _285  and  _288
REMARK  107  A    between atoms: _288  and  _289
REMARK  108  A    between atoms: _290  and  ZN_582
REMARK  109  A    between atoms: _294  and  _296
REMARK  110  A    between atoms: _296  and  _297
REMARK  111  A    between atoms: _296  and  _299
REMARK  112  A    between atoms: _299  and  _300
REMARK  113  A    between atoms: _303  and  _305
REMARK  114  A    between atoms: _305  and  _306
REMARK  115  A    between atoms: _305  and  _308
REMARK  116  A    between atoms: _311  and  _313
REMARK  117  A    between atoms: _313  and  _314
REMARK  118  A    between atoms: _313  and  _316
REMARK  119  A    between atoms: _316  and  _317
REMARK  120  A    between atoms: _322  and  _324
REMARK  121  A    between atoms: _324  and  _325
REMARK  122  A    between atoms: _324  and  _327
REMARK  123  A    between atoms: _327  and  _328
REMARK  124  A    between atoms: _333  and  _334
REMARK  125  A    between atoms: _336  and  _338
REMARK  126  A    between atoms: _338  and  _339
REMARK  127  A    between atoms: _338  and  _341
REMARK  128  A    between atoms: _341  and  _342
REMARK  129  A    between atoms: _345  and  _347
REMARK  130  A    between atoms: _347  and  _348
REMARK  131  A    between atoms: _351  and  _353
REMARK  132  A    between atoms: _353  and  _354
REMARK  133  A    between atoms: _353  and  _356
REMARK  134  A    between atoms: _356  and  _357
REMARK  135  A    between atoms: _359  and  _361
REMARK  136  A    between atoms: _361  and  _362
REMARK  137  A    between atoms: _361  and  _364
REMARK  138  A    between atoms: _364  and  _365
REMARK  139  A    between atoms: _368  and  _370
REMARK  140  A    between atoms: _370  and  _371
REMARK  141  A    between atoms: _374  and  _376
REMARK  142  A    between atoms: _376  and  _377
REMARK  143  A    between atoms: _376  and  _379
REMARK  144  A    between atoms: _379  and  _380
REMARK  145  A    between atoms: _382  and  _384
REMARK  146  A    between atoms: _384  and  _385
REMARK  147  A    between atoms: _384  and  _387
REMARK  148  A    between atoms: _387  and  _388
REMARK  149  A    between atoms: _393  and  _395
REMARK  150  A    between atoms: _395  and  _396
REMARK  151  A    between atoms: _398  and  _400
REMARK  152  A    between atoms: _400  and  _401
REMARK  153  A    between atoms: _400  and  _403
REMARK  154  A    between atoms: _403  and  _404
REMARK  155  A    between atoms: _407  and  _409
REMARK  156  A    between atoms: _409  and  _410
REMARK  157  A    between atoms: _413  and  _415
REMARK  158  A    between atoms: _415  and  _416
REMARK  159  A    between atoms: _415  and  _418
REMARK  160  A    between atoms: _421  and  _423
REMARK  161  A    between atoms: _423  and  _424
REMARK  162  A    between atoms: _423  and  _426
REMARK  163  A    between atoms: _426  and  _427
REMARK  164  A    between atoms: _430  and  _432
REMARK  165  A    between atoms: _432  and  _433
REMARK  166  A    between atoms: _436  and  _438
REMARK  167  A    between atoms: _438  and  _439
REMARK  168  A    between atoms: _438  and  _441
REMARK  169  A    between atoms: _441  and  _442
REMARK  170  A    between atoms: _444  and  _446
REMARK  171  A    between atoms: _446  and  _447
REMARK  172  A    between atoms: _446  and  _449
REMARK  173  A    between atoms: _449  and  _450
REMARK  174  A    between atoms: _453  and  _455
REMARK  175  A    between atoms: _455  and  _456
REMARK  176  A    between atoms: _455  and  _458
REMARK  177  A    between atoms: _458  and  _459
REMARK  178  A    between atoms: _462  and  _464
REMARK  179  A    between atoms: _464  and  _465
REMARK  180  A    between atoms: _464  and  _467
REMARK  181  A    between atoms: _467  and  _468
REMARK  182  A    between atoms: _472  and  _473
REMARK  183  A    between atoms: _479  and  _480
REMARK  184  A    between atoms: _485  and  _487
REMARK  185  A    between atoms: _487  and  _488
REMARK  186  A    between atoms: _487  and  _490
REMARK  187  A    between atoms: _492  and  _494
REMARK  188  A    between atoms: _494  and  _495
REMARK  189  A    between atoms: _494  and  _497
REMARK  190  A    between atoms: _497  and  _498
REMARK  191  A    between atoms: _503  and  _505
REMARK  192  A    between atoms: _505  and  _506
REMARK  193  A    between atoms: _505  and  _508
REMARK  194  A    between atoms: _508  and  _509
REMARK  195  A    between atoms: _512  and  _514
REMARK  196  A    between atoms: _514  and  _515
REMARK  197  A    between atoms: _514  and  _517
REMARK  198  A    between atoms: _520  and  _522
REMARK  199  A    between atoms: _522  and  _523
REMARK  200  A    between atoms: _522  and  _525
REMARK  201  A    between atoms: _525  and  _526
REMARK  202  A    between atoms: _529  and  _531
REMARK  203  A    between atoms: _531  and  _532
REMARK  204  A    between atoms: _531  and  _534
REMARK  205  A    between atoms: _534  and  _535
REMARK  206  A    between atoms: _545  and  _547
REMARK  207  A    between atoms: _547  and  _548
REMARK  208  A    between atoms: _547  and  _550
REMARK  209  A    between atoms: _550  and  _551
REMARK  210  A    between atoms: _551  and  _552
REMARK  211  A    between atoms: _554  and  _556
REMARK  212  A    between atoms: _556  and  _557
REMARK  213  A    between atoms: _556  and  _559
REMARK  214  A    between atoms: _559  and  _560
REMARK  215  A    between atoms: _565  and  _567
REMARK  216  A    between atoms: _567  and  _568
REMARK  217  A    between atoms: _567  and  _570
REMARK  218  A    between atoms: _570  and  _571
REMARK  219  A    between atoms: _571  and  _572
REMARK  220  A    between atoms: _572  and  _573
REMARK                            x       y       z     vdW  Elec       q    Type
REMARK                         _______ _______ _______ _____ _____    ______ ____
ROOT
ATOM      1  O   HOH     1      36.714   6.232  12.135  0.00  0.00    +0.000 OA
ENDROOT
TORSDOF 0
REMARK  Name = ../refined-set-2016/4qj0/4qj0_pocket.pdb
REMARK  220 active torsions:
REMARK  status: ('A' for Active; 'I' for Inactive)
REMARK    1  A    between atoms: _1  and  _5
REMARK    2  A    between atoms: _5  and  _6
REMARK    3  A    between atoms: _5  and  _8
REMARK    4  A    between atoms: _8  and  _9
REMARK    5  A    between atoms: _9  and  _10
REMARK    6  A    between atoms: _10  and  _11
REMARK    7  A    between atoms: _11  and  _12
REMARK    8  A    between atoms: _16  and  _18
REMARK    9  A    between atoms: _18  and  _19
REMARK   10  A    between atoms: _18  and  _21
REMARK   11  A    between atoms: _21  and  _22
REMARK   12  A    between atoms: _32  and  _34
REMARK   13  A    between atoms: _34  and  _35
REMARK   14  A    between atoms: _34  and  _37
REMARK   15  A    between atoms: _37  and  _38
REMARK   16  A    between atoms: _43  and  _44
REMARK   17  A    between atoms: _46  and  _48
REMARK   18  A    between atoms: _48  and  _49
REMARK   19  A    between atoms: _48  and  _51
REMARK   20  A    between atoms: _51  and  _52
REMARK   21  A    between atoms: _57  and  _58
REMARK   22  A    between atoms: _60  and  _62
REMARK   23  A    between atoms: _62  and  _63
REMARK   24  A    between atoms: _62  and  _65
REMARK   25  A    between atoms: _65  and  _66
REMARK   26  A    between atoms: _69  and  _70
REMARK   27  A    between atoms: _75  and  _77
REMARK   28  A    between atoms: _77  and  _78
REMARK   29  A    between atoms: _77  and  _80
REMARK   30  A    between atoms: _80  and  _81
REMARK   31  A    between atoms: _84  and  _86
REMARK   32  A    between atoms: _86  and  _87
REMARK   33  A    between atoms: _86  and  _89
REMARK   34  A    between atoms: _89  and  _90
REMARK   35  A    between atoms: _95  and  _97
REMARK   36  A    between atoms: _97  and  _98
REMARK   37  A    between atoms: _100  and  _102
REMARK   38  A    between atoms: _102  and  _103
REMARK   39  A    between atoms: _102  and  _105
REMARK   40  A    between atoms: _105  and  _106
REMARK   41  A    between atoms: _111  and  _113
REMARK   42  A    between atoms: _113  and  _114
REMARK   43  A    between atoms: _113  and  _116
REMARK   44  A    between atoms: _116  and  _117
REMARK   45  A    between atoms: _119  and  _121
REMARK   46  A    between atoms: _121  and  _122
REMARK   47  A    between atoms: _121  and  _124
REMARK   48  A    between atoms: _127  and  _129
REMARK   49  A    between atoms: _129  and  _130
REMARK   50  A    between atoms: _129  and  _132
REMARK   51  A    between atoms: _132  and  _133
REMARK   52  A    between atoms: _133  and  _134
REMARK   53  A    between atoms: _134  and  _135
REMARK   54  A    between atoms: _135  and  _136
REMARK   55  A    between atoms: _140  and  _142
REMARK   56  A    between atoms: _142  and  _143
REMARK   57  A    between atoms: _142  and  _145
REMARK   58  A    between atoms: _145  and  _146
REMARK   59  A    between atoms: _149  and  _151
REMARK   60  A    between atoms: _151  and  _152
REMARK   61  A    between atoms: _151  and  _154
REMARK   62  A    between atoms: _154  and  _155
REMARK   63  A    between atoms: _160  and  _162
REMARK   64  A    between atoms: _162  and  _163
REMARK   65  A    between atoms: _166  and  _168
REMARK   66  A    between atoms: _168  and  _169
REMARK   67  A    between atoms: _168  and  _171
REMARK   68  A    between atoms: _171  and  _172
REMARK   69  A    between atoms: _175  and  _177
REMARK   70  A    between atoms: _177  and  _178
REMARK   71  A    between atoms: _177  and  _180
REMARK   72  A    between atoms: _180  and  _181
REMARK   73  A    between atoms: _181  and  _182
REMARK   74  A    between atoms: _187  and  _189
REMARK   75  A    between atoms: _189  and  _190
REMARK   76  A    between atoms: _189  and  _192
REMARK   77  A    between atoms: _192  and  _193
REMARK   78  A    between atoms: _196  and  _198
REMARK   79  A    between atoms: _209  and  _212
REMARK   80  A    between atoms: _212  and  _213
REMARK   81  A    between atoms: _218  and  _219
REMARK   82  A    between atoms: _227  and  _229
REMARK   83  A    between atoms: _229  and  _230
REMARK   84  A    between atoms: _229  and  _232
REMARK   85  A    between atoms: _232  and  _233
REMARK   86  A    between atoms: _243  and  _245
REMARK   87  A    between atoms: _245  and  _246
REMARK   88  A    between atoms: _245  and  _248
REMARK   89  A    between atoms: _248  and  _249
REMARK   90  A    between atoms: _249  and  _250
REMARK   91  A    between atoms: _253  and  _255
REMARK   92  A    between atoms: _255  and  _256
REMARK   93  A    between atoms: _255  and  _258
REMARK   94  A    between atoms: _258  and  _259
REMARK   95  A    between atoms: _264  and  _266
REMARK   96  A    between atoms: _266  and  _267
REMARK   97  A    between atoms: _266  and  _269
REMARK   98  A    between atoms: _269  and  _270
REMARK   99  A    between atoms: _270  and  _271
REMARK  100  A    between atoms: _274  and  _276
REMARK  101  A    between atoms: _276  and  _277
REMARK  102  A    between atoms: _276  and  _279
REMARK  103  A    between atoms: _279  and  _280
REMARK  104  A    between atoms: _283  and  _285
REMARK  105  A    between atoms: _285  and  _286
REMARK  106  A    between atoms: _285  and  _288
REMARK  107  A    between atoms: _288  and  _289
REMARK  108  A    between atoms: _290  and  ZN_582
REMARK  109  A    between atoms: _294  and  _296
REMARK  110  A    between atoms: _296  and  _297
REMARK  111  A    between atoms: _296  and  _299
REMARK  112  A    between atoms: _299  and  _300
REMARK  113  A    between atoms: _303  and  _305
REMARK  114  A    between atoms: _305  and  _306
REMARK  115  A    between atoms: _305  and  _308
REMARK  116  A    between atoms: _311  and  _313
REMARK  117  A    between atoms: _313  and  _314
REMARK  118  A    between atoms: _313  and  _316
REMARK  119  A    between atoms: _316  and  _317
REMARK  120  A    between atoms: _322  and  _324
REMARK  121  A    between atoms: _324  and  _325
REMARK  122  A    between atoms: _324  and  _327
REMARK  123  A    between atoms: _327  and  _328
REMARK  124  A    between atoms: _333  and  _334
REMARK  125  A    between atoms: _336  and  _338
REMARK  126  A    between atoms: _338  and  _339
REMARK  127  A    between atoms: _338  and  _341
REMARK  128  A    between atoms: _341  and  _342
REMARK  129  A    between atoms: _345  and  _347
REMARK  130  A    between atoms: _347  and  _348
REMARK  131  A    between atoms: _351  and  _353
REMARK  132  A    between atoms: _353  and  _354
REMARK  133  A    between atoms: _353  and  _356
REMARK  134  A    between atoms: _356  and  _357
REMARK  135  A    between atoms: _359  and  _361
REMARK  136  A    between atoms: _361  and  _362
REMARK  137  A    between atoms: _361  and  _364
REMARK  138  A    between atoms: _364  and  _365
REMARK  139  A    between atoms: _368  and  _370
REMARK  140  A    between atoms: _370  and  _371
REMARK  141  A    between atoms: _374  and  _376
REMARK  142  A    between atoms: _376  and  _377
REMARK  143  A    between atoms: _376  and  _379
REMARK  144  A    between atoms: _379  and  _380
REMARK  145  A    between atoms: _382  and  _384
REMARK  146  A    between atoms: _384  and  _385
REMARK  147  A    between atoms: _384  and  _387
REMARK  148  A    between atoms: _387  and  _388
REMARK  149  A    between atoms: _393  and  _395
REMARK  150  A    between atoms: _395  and  _396
REMARK  151  A    between atoms: _398  and  _400
REMARK  152  A    between atoms: _400  and  _401
REMARK  153  A    between atoms: _400  and  _403
REMARK  154  A    between atoms: _403  and  _404
REMARK  155  A    between atoms: _407  and  _409
REMARK  156  A    between atoms: _409  and  _410
REMARK  157  A    between atoms: _413  and  _415
REMARK  158  A    between atoms: _415  and  _416
REMARK  159  A    between atoms: _415  and  _418
REMARK  160  A    between atoms: _421  and  _423
REMARK  161  A    between atoms: _423  and  _424
REMARK  162  A    between atoms: _423  and  _426
REMARK  163  A    between atoms: _426  and  _427
REMARK  164  A    between atoms: _430  and  _432
REMARK  165  A    between atoms: _432  and  _433
REMARK  166  A    between atoms: _436  and  _438
REMARK  167  A    between atoms: _438  and  _439
REMARK  168  A    between atoms: _438  and  _441
REMARK  169  A    between atoms: _441  and  _442
REMARK  170  A    between atoms: _444  and  _446
REMARK  171  A    between atoms: _446  and  _447
REMARK  172  A    between atoms: _446  and  _449
REMARK  173  A    between atoms: _449  and  _450
REMARK  174  A    between atoms: _453  and  _455
REMARK  175  A    between atoms: _455  and  _456
REMARK  176  A    between atoms: _455  and  _458
REMARK  177  A    between atoms: _458  and  _459
REMARK  178  A    between atoms: _462  and  _464
REMARK  179  A    between atoms: _464  and  _465
REMARK  180  A    between atoms: _464  and  _467
REMARK  181  A    between atoms: _467  and  _468
REMARK  182  A    between atoms: _472  and  _473
REMARK  183  A    between atoms: _479  and  _480
REMARK  184  A    between atoms: _485  and  _487
REMARK  185  A    between atoms: _487  and  _488
REMARK  186  A    between atoms: _487  and  _490
REMARK  187  A    between atoms: _492  and  _494
REMARK  188  A    between atoms: _494  and  _495
REMARK  189  A    between atoms: _494  and  _497
REMARK  190  A    between atoms: _497  and  _498
REMARK  191  A    between atoms: _503  and  _505
REMARK  192  A    between atoms: _505  and  _506
REMARK  193  A    between atoms: _505  and  _508
REMARK  194  A    between atoms: _508  and  _509
REMARK  195  A    between atoms: _512  and  _514
REMARK  196  A    between atoms: _514  and  _515
REMARK  197  A    between atoms: _514  and  _517
REMARK  198  A    between atoms: _520  and  _522
REMARK  199  A    between atoms: _522  and  _523
REMARK  200  A    between atoms: _522  and  _525
REMARK  201  A    between atoms: _525  and  _526
REMARK  202  A    between atoms: _529  and  _531
REMARK  203  A    between atoms: _531  and  _532
REMARK  204  A    between atoms: _531  and  _534
REMARK  205  A    between atoms: _534  and  _535
REMARK  206  A    between atoms: _545  and  _547
REMARK  207  A    between atoms: _547  and  _548
REMARK  208  A    between atoms: _547  and  _550
REMARK  209  A    between atoms: _550  and  _551
REMARK  210  A    between atoms: _551  and  _552
REMARK  211  A    between atoms: _554  and  _556
REMARK  212  A    between atoms: _556  and  _557
REMARK  213  A    between atoms: _556  and  _559
REMARK  214  A    between atoms: _559  and  _560
REMARK  215  A    between atoms: _565  and  _567
REMARK  216  A    between atoms: _567  and  _568
REMARK  217  A    between atoms: _567  and  _570
REMARK  218  A    between atoms: _570  and  _571
REMARK  219  A    between atoms: _571  and  _572
REMARK  220  A    between atoms: _572  and  _573
REMARK                            x       y       z     vdW  Elec       q    Type
REMARK                         _______ _______ _______ _____ _____    ______ ____
ROOT
ATOM      1  O   HOH     1      26.605  13.509   8.002  0.00  0.00    +0.000 OA
ENDROOT
TORSDOF 0
REMARK  Name = ../refined-set-2016/4qj0/4qj0_pocket.pdb
REMARK  220 active torsions:
REMARK  status: ('A' for Active; 'I' for Inactive)
REMARK    1  A    between atoms: _1  and  _5
REMARK    2  A    between atoms: _5  and  _6
REMARK    3  A    between atoms: _5  and  _8
REMARK    4  A    between atoms: _8  and  _9
REMARK    5  A    between atoms: _9  and  _10
REMARK    6  A    between atoms: _10  and  _11
REMARK    7  A    between atoms: _11  and  _12
REMARK    8  A    between atoms: _16  and  _18
REMARK    9  A    between atoms: _18  and  _19
REMARK   10  A    between atoms: _18  and  _21
REMARK   11  A    between atoms: _21  and  _22
REMARK   12  A    between atoms: _32  and  _34
REMARK   13  A    between atoms: _34  and  _35
REMARK   14  A    between atoms: _34  and  _37
REMARK   15  A    between atoms: _37  and  _38
REMARK   16  A    between atoms: _43  and  _44
REMARK   17  A    between atoms: _46  and  _48
REMARK   18  A    between atoms: _48  and  _49
REMARK   19  A    between atoms: _48  and  _51
REMARK   20  A    between atoms: _51  and  _52
REMARK   21  A    between atoms: _57  and  _58
REMARK   22  A    between atoms: _60  and  _62
REMARK   23  A    between atoms: _62  and  _63
REMARK   24  A    between atoms: _62  and  _65
REMARK   25  A    between atoms: _65  and  _66
REMARK   26  A    between atoms: _69  and  _70
REMARK   27  A    between atoms: _75  and  _77
REMARK   28  A    between atoms: _77  and  _78
REMARK   29  A    between atoms: _77  and  _80
REMARK   30  A    between atoms: _80  and  _81
REMARK   31  A    between atoms: _84  and  _86
REMARK   32  A    between atoms: _86  and  _87
REMARK   33  A    between atoms: _86  and  _89
REMARK   34  A    between atoms: _89  and  _90
REMARK   35  A    between atoms: _95  and  _97
REMARK   36  A    between atoms: _97  and  _98
REMARK   37  A    between atoms: _100  and  _102
REMARK   38  A    between atoms: _102  and  _103
REMARK   39  A    between atoms: _102  and  _105
REMARK   40  A    between atoms: _105  and  _106
REMARK   41  A    between atoms: _111  and  _113
REMARK   42  A    between atoms: _113  and  _114
REMARK   43  A    between atoms: _113  and  _116
REMARK   44  A    between atoms: _116  and  _117
REMARK   45  A    between atoms: _119  and  _121
REMARK   46  A    between atoms: _121  and  _122
REMARK   47  A    between atoms: _121  and  _124
REMARK   48  A    between atoms: _127  and  _129
REMARK   49  A    between atoms: _129  and  _130
REMARK   50  A    between atoms: _129  and  _132
REMARK   51  A    between atoms: _132  and  _133
REMARK   52  A    between atoms: _133  and  _134
REMARK   53  A    between atoms: _134  and  _135
REMARK   54  A    between atoms: _135  and  _136
REMARK   55  A    between atoms: _140  and  _142
REMARK   56  A    between atoms: _142  and  _143
REMARK   57  A    between atoms: _142  and  _145
REMARK   58  A    between atoms: _145  and  _146
REMARK   59  A    between atoms: _149  and  _151
REMARK   60  A    between atoms: _151  and  _152
REMARK   61  A    between atoms: _151  and  _154
REMARK   62  A    between atoms: _154  and  _155
REMARK   63  A    between atoms: _160  and  _162
REMARK   64  A    between atoms: _162  and  _163
REMARK   65  A    between atoms: _166  and  _168
REMARK   66  A    between atoms: _168  and  _169
REMARK   67  A    between atoms: _168  and  _171
REMARK   68  A    between atoms: _171  and  _172
REMARK   69  A    between atoms: _175  and  _177
REMARK   70  A    between atoms: _177  and  _178
REMARK   71  A    between atoms: _177  and  _180
REMARK   72  A    between atoms: _180  and  _181
REMARK   73  A    between atoms: _181  and  _182
REMARK   74  A    between atoms: _187  and  _189
REMARK   75  A    between atoms: _189  and  _190
REMARK   76  A    between atoms: _189  and  _192
REMARK   77  A    between atoms: _192  and  _193
REMARK   78  A    between atoms: _196  and  _198
REMARK   79  A    between atoms: _209  and  _212
REMARK   80  A    between atoms: _212  and  _213
REMARK   81  A    between atoms: _218  and  _219
REMARK   82  A    between atoms: _227  and  _229
REMARK   83  A    between atoms: _229  and  _230
REMARK   84  A    between atoms: _229  and  _232
REMARK   85  A    between atoms: _232  and  _233
REMARK   86  A    between atoms: _243  and  _245
REMARK   87  A    between atoms: _245  and  _246
REMARK   88  A    between atoms: _245  and  _248
REMARK   89  A    between atoms: _248  and  _249
REMARK   90  A    between atoms: _249  and  _250
REMARK   91  A    between atoms: _253  and  _255
REMARK   92  A    between atoms: _255  and  _256
REMARK   93  A    between atoms: _255  and  _258
REMARK   94  A    between atoms: _258  and  _259
REMARK   95  A    between atoms: _264  and  _266
REMARK   96  A    between atoms: _266  and  _267
REMARK   97  A    between atoms: _266  and  _269
REMARK   98  A    between atoms: _269  and  _270
REMARK   99  A    between atoms: _270  and  _271
REMARK  100  A    between atoms: _274  and  _276
REMARK  101  A    between atoms: _276  and  _277
REMARK  102  A    between atoms: _276  and  _279
REMARK  103  A    between atoms: _279  and  _280
REMARK  104  A    between atoms: _283  and  _285
REMARK  105  A    between atoms: _285  and  _286
REMARK  106  A    between atoms: _285  and  _288
REMARK  107  A    between atoms: _288  and  _289
REMARK  108  A    between atoms: _290  and  ZN_582
REMARK  109  A    between atoms: _294  and  _296
REMARK  110  A    between atoms: _296  and  _297
REMARK  111  A    between atoms: _296  and  _299
REMARK  112  A    between atoms: _299  and  _300
REMARK  113  A    between atoms: _303  and  _305
REMARK  114  A    between atoms: _305  and  _306
REMARK  115  A    between atoms: _305  and  _308
REMARK  116  A    between atoms: _311  and  _313
REMARK  117  A    between atoms: _313  and  _314
REMARK  118  A    between atoms: _313  and  _316
REMARK  119  A    between atoms: _316  and  _317
REMARK  120  A    between atoms: _322  and  _324
REMARK  121  A    between atoms: _324  and  _325
REMARK  122  A    between atoms: _324  and  _327
REMARK  123  A    between atoms: _327  and  _328
REMARK  124  A    between atoms: _333  and  _334
REMARK  125  A    between atoms: _336  and  _338
REMARK  126  A    between atoms: _338  and  _339
REMARK  127  A    between atoms: _338  and  _341
REMARK  128  A    between atoms: _341  and  _342
REMARK  129  A    between atoms: _345  and  _347
REMARK  130  A    between atoms: _347  and  _348
REMARK  131  A    between atoms: _351  and  _353
REMARK  132  A    between atoms: _353  and  _354
REMARK  133  A    between atoms: _353  and  _356
REMARK  134  A    between atoms: _356  and  _357
REMARK  135  A    between atoms: _359  and  _361
REMARK  136  A    between atoms: _361  and  _362
REMARK  137  A    between atoms: _361  and  _364
REMARK  138  A    between atoms: _364  and  _365
REMARK  139  A    between atoms: _368  and  _370
REMARK  140  A    between atoms: _370  and  _371
REMARK  141  A    between atoms: _374  and  _376
REMARK  142  A    between atoms: _376  and  _377
REMARK  143  A    between atoms: _376  and  _379
REMARK  144  A    between atoms: _379  and  _380
REMARK  145  A    between atoms: _382  and  _384
REMARK  146  A    between atoms: _384  and  _385
REMARK  147  A    between atoms: _384  and  _387
REMARK  148  A    between atoms: _387  and  _388
REMARK  149  A    between atoms: _393  and  _395
REMARK  150  A    between atoms: _395  and  _396
REMARK  151  A    between atoms: _398  and  _400
REMARK  152  A    between atoms: _400  and  _401
REMARK  153  A    between atoms: _400  and  _403
REMARK  154  A    between atoms: _403  and  _404
REMARK  155  A    between atoms: _407  and  _409
REMARK  156  A    between atoms: _409  and  _410
REMARK  157  A    between atoms: _413  and  _415
REMARK  158  A    between atoms: _415  and  _416
REMARK  159  A    between atoms: _415  and  _418
REMARK  160  A    between atoms: _421  and  _423
REMARK  161  A    between atoms: _423  and  _424
REMARK  162  A    between atoms: _423  and  _426
REMARK  163  A    between atoms: _426  and  _427
REMARK  164  A    between atoms: _430  and  _432
REMARK  165  A    between atoms: _432  and  _433
REMARK  166  A    between atoms: _436  and  _438
REMARK  167  A    between atoms: _438  and  _439
REMARK  168  A    between atoms: _438  and  _441
REMARK  169  A    between atoms: _441  and  _442
REMARK  170  A    between atoms: _444  and  _446
REMARK  171  A    between atoms: _446  and  _447
REMARK  172  A    between atoms: _446  and  _449
REMARK  173  A    between atoms: _449  and  _450
REMARK  174  A    between atoms: _453  and  _455
REMARK  175  A    between atoms: _455  and  _456
REMARK  176  A    between atoms: _455  and  _458
REMARK  177  A    between atoms: _458  and  _459
REMARK  178  A    between atoms: _462  and  _464
REMARK  179  A    between atoms: _464  and  _465
REMARK  180  A    between atoms: _464  and  _467
REMARK  181  A    between atoms: _467  and  _468
REMARK  182  A    between atoms: _472  and  _473
REMARK  183  A    between atoms: _479  and  _480
REMARK  184  A    between atoms: _485  and  _487
REMARK  185  A    between atoms: _487  and  _488
REMARK  186  A    between atoms: _487  and  _490
REMARK  187  A    between atoms: _492  and  _494
REMARK  188  A    between atoms: _494  and  _495
REMARK  189  A    between atoms: _494  and  _497
REMARK  190  A    between atoms: _497  and  _498
REMARK  191  A    between atoms: _503  and  _505
REMARK  192  A    between atoms: _505  and  _506
REMARK  193  A    between atoms: _505  and  _508
REMARK  194  A    between atoms: _508  and  _509
REMARK  195  A    between atoms: _512  and  _514
REMARK  196  A    between atoms: _514  and  _515
REMARK  197  A    between atoms: _514  and  _517
REMARK  198  A    between atoms: _520  and  _522
REMARK  199  A    between atoms: _522  and  _523
REMARK  200  A    between atoms: _522  and  _525
REMARK  201  A    between atoms: _525  and  _526
REMARK  202  A    between atoms: _529  and  _531
REMARK  203  A    between atoms: _531  and  _532
REMARK  204  A    between atoms: _531  and  _534
REMARK  205  A    between atoms: _534  and  _535
REMARK  206  A    between atoms: _545  and  _547
REMARK  207  A    between atoms: _547  and  _548
REMARK  208  A    between atoms: _547  and  _550
REMARK  209  A    between atoms: _550  and  _551
REMARK  210  A    between atoms: _551  and  _552
REMARK  211  A    between atoms: _554  and  _556
REMARK  212  A    between atoms: _556  and  _557
REMARK  213  A    between atoms: _556  and  _559
REMARK  214  A    between atoms: _559  and  _560
REMARK  215  A    between atoms: _565  and  _567
REMARK  216  A    between atoms: _567  and  _568
REMARK  217  A    between atoms: _567  and  _570
REMARK  218  A    between atoms: _570  and  _571
REMARK  219  A    between atoms: _571  and  _572
REMARK  220  A    between atoms: _572  and  _573
REMARK                            x       y       z     vdW  Elec       q    Type
REMARK                         _______ _______ _______ _____ _____    ______ ____
ROOT
ATOM      1  O   HOH     1      28.147   8.876  17.405  0.00  0.00    +0.000 OA
ENDROOT
TORSDOF 0
REMARK  Name = ../refined-set-2016/4qj0/4qj0_pocket.pdb
REMARK  220 active torsions:
REMARK  status: ('A' for Active; 'I' for Inactive)
REMARK    1  A    between atoms: _1  and  _5
REMARK    2  A    between atoms: _5  and  _6
REMARK    3  A    between atoms: _5  and  _8
REMARK    4  A    between atoms: _8  and  _9
REMARK    5  A    between atoms: _9  and  _10
REMARK    6  A    between atoms: _10  and  _11
REMARK    7  A    between atoms: _11  and  _12
REMARK    8  A    between atoms: _16  and  _18
REMARK    9  A    between atoms: _18  and  _19
REMARK   10  A    between atoms: _18  and  _21
REMARK   11  A    between atoms: _21  and  _22
REMARK   12  A    between atoms: _32  and  _34
REMARK   13  A    between atoms: _34  and  _35
REMARK   14  A    between atoms: _34  and  _37
REMARK   15  A    between atoms: _37  and  _38
REMARK   16  A    between atoms: _43  and  _44
REMARK   17  A    between atoms: _46  and  _48
REMARK   18  A    between atoms: _48  and  _49
REMARK   19  A    between atoms: _48  and  _51
REMARK   20  A    between atoms: _51  and  _52
REMARK   21  A    between atoms: _57  and  _58
REMARK   22  A    between atoms: _60  and  _62
REMARK   23  A    between atoms: _62  and  _63
REMARK   24  A    between atoms: _62  and  _65
REMARK   25  A    between atoms: _65  and  _66
REMARK   26  A    between atoms: _69  and  _70
REMARK   27  A    between atoms: _75  and  _77
REMARK   28  A    between atoms: _77  and  _78
REMARK   29  A    between atoms: _77  and  _80
REMARK   30  A    between atoms: _80  and  _81
REMARK   31  A    between atoms: _84  and  _86
REMARK   32  A    between atoms: _86  and  _87
REMARK   33  A    between atoms: _86  and  _89
REMARK   34  A    between atoms: _89  and  _90
REMARK   35  A    between atoms: _95  and  _97
REMARK   36  A    between atoms: _97  and  _98
REMARK   37  A    between atoms: _100  and  _102
REMARK   38  A    between atoms: _102  and  _103
REMARK   39  A    between atoms: _102  and  _105
REMARK   40  A    between atoms: _105  and  _106
REMARK   41  A    between atoms: _111  and  _113
REMARK   42  A    between atoms: _113  and  _114
REMARK   43  A    between atoms: _113  and  _116
REMARK   44  A    between atoms: _116  and  _117
REMARK   45  A    between atoms: _119  and  _121
REMARK   46  A    between atoms: _121  and  _122
REMARK   47  A    between atoms: _121  and  _124
REMARK   48  A    between atoms: _127  and  _129
REMARK   49  A    between atoms: _129  and  _130
REMARK   50  A    between atoms: _129  and  _132
REMARK   51  A    between atoms: _132  and  _133
REMARK   52  A    between atoms: _133  and  _134
REMARK   53  A    between atoms: _134  and  _135
REMARK   54  A    between atoms: _135  and  _136
REMARK   55  A    between atoms: _140  and  _142
REMARK   56  A    between atoms: _142  and  _143
REMARK   57  A    between atoms: _142  and  _145
REMARK   58  A    between atoms: _145  and  _146
REMARK   59  A    between atoms: _149  and  _151
REMARK   60  A    between atoms: _151  and  _152
REMARK   61  A    between atoms: _151  and  _154
REMARK   62  A    between atoms: _154  and  _155
REMARK   63  A    between atoms: _160  and  _162
REMARK   64  A    between atoms: _162  and  _163
REMARK   65  A    between atoms: _166  and  _168
REMARK   66  A    between atoms: _168  and  _169
REMARK   67  A    between atoms: _168  and  _171
REMARK   68  A    between atoms: _171  and  _172
REMARK   69  A    between atoms: _175  and  _177
REMARK   70  A    between atoms: _177  and  _178
REMARK   71  A    between atoms: _177  and  _180
REMARK   72  A    between atoms: _180  and  _181
REMARK   73  A    between atoms: _181  and  _182
REMARK   74  A    between atoms: _187  and  _189
REMARK   75  A    between atoms: _189  and  _190
REMARK   76  A    between atoms: _189  and  _192
REMARK   77  A    between atoms: _192  and  _193
REMARK   78  A    between atoms: _196  and  _198
REMARK   79  A    between atoms: _209  and  _212
REMARK   80  A    between atoms: _212  and  _213
REMARK   81  A    between atoms: _218  and  _219
REMARK   82  A    between atoms: _227  and  _229
REMARK   83  A    between atoms: _229  and  _230
REMARK   84  A    between atoms: _229  and  _232
REMARK   85  A    between atoms: _232  and  _233
REMARK   86  A    between atoms: _243  and  _245
REMARK   87  A    between atoms: _245  and  _246
REMARK   88  A    between atoms: _245  and  _248
REMARK   89  A    between atoms: _248  and  _249
REMARK   90  A    between atoms: _249  and  _250
REMARK   91  A    between atoms: _253  and  _255
REMARK   92  A    between atoms: _255  and  _256
REMARK   93  A    between atoms: _255  and  _258
REMARK   94  A    between atoms: _258  and  _259
REMARK   95  A    between atoms: _264  and  _266
REMARK   96  A    between atoms: _266  and  _267
REMARK   97  A    between atoms: _266  and  _269
REMARK   98  A    between atoms: _269  and  _270
REMARK   99  A    between atoms: _270  and  _271
REMARK  100  A    between atoms: _274  and  _276
REMARK  101  A    between atoms: _276  and  _277
REMARK  102  A    between atoms: _276  and  _279
REMARK  103  A    between atoms: _279  and  _280
REMARK  104  A    between atoms: _283  and  _285
REMARK  105  A    between atoms: _285  and  _286
REMARK  106  A    between atoms: _285  and  _288
REMARK  107  A    between atoms: _288  and  _289
REMARK  108  A    between atoms: _290  and  ZN_582
REMARK  109  A    between atoms: _294  and  _296
REMARK  110  A    between atoms: _296  and  _297
REMARK  111  A    between atoms: _296  and  _299
REMARK  112  A    between atoms: _299  and  _300
REMARK  113  A    between atoms: _303  and  _305
REMARK  114  A    between atoms: _305  and  _306
REMARK  115  A    between atoms: _305  and  _308
REMARK  116  A    between atoms: _311  and  _313
REMARK  117  A    between atoms: _313  and  _314
REMARK  118  A    between atoms: _313  and  _316
REMARK  119  A    between atoms: _316  and  _317
REMARK  120  A    between atoms: _322  and  _324
REMARK  121  A    between atoms: _324  and  _325
REMARK  122  A    between atoms: _324  and  _327
REMARK  123  A    between atoms: _327  and  _328
REMARK  124  A    between atoms: _333  and  _334
REMARK  125  A    between atoms: _336  and  _338
REMARK  126  A    between atoms: _338  and  _339
REMARK  127  A    between atoms: _338  and  _341
REMARK  128  A    between atoms: _341  and  _342
REMARK  129  A    between atoms: _345  and  _347
REMARK  130  A    between atoms: _347  and  _348
REMARK  131  A    between atoms: _351  and  _353
REMARK  132  A    between atoms: _353  and  _354
REMARK  133  A    between atoms: _353  and  _356
REMARK  134  A    between atoms: _356  and  _357
REMARK  135  A    between atoms: _359  and  _361
REMARK  136  A    between atoms: _361  and  _362
REMARK  137  A    between atoms: _361  and  _364
REMARK  138  A    between atoms: _364  and  _365
REMARK  139  A    between atoms: _368  and  _370
REMARK  140  A    between atoms: _370  and  _371
REMARK  141  A    between atoms: _374  and  _376
REMARK  142  A    between atoms: _376  and  _377
REMARK  143  A    between atoms: _376  and  _379
REMARK  144  A    between atoms: _379  and  _380
REMARK  145  A    between atoms: _382  and  _384
REMARK  146  A    between atoms: _384  and  _385
REMARK  147  A    between atoms: _384  and  _387
REMARK  148  A    between atoms: _387  and  _388
REMARK  149  A    between atoms: _393  and  _395
REMARK  150  A    between atoms: _395  and  _396
REMARK  151  A    between atoms: _398  and  _400
REMARK  152  A    between atoms: _400  and  _401
REMARK  153  A    between atoms: _400  and  _403
REMARK  154  A    between atoms: _403  and  _404
REMARK  155  A    between atoms: _407  and  _409
REMARK  156  A    between atoms: _409  and  _410
REMARK  157  A    between atoms: _413  and  _415
REMARK  158  A    between atoms: _415  and  _416
REMARK  159  A    between atoms: _415  and  _418
REMARK  160  A    between atoms: _421  and  _423
REMARK  161  A    between atoms: _423  and  _424
REMARK  162  A    between atoms: _423  and  _426
REMARK  163  A    between atoms: _426  and  _427
REMARK  164  A    between atoms: _430  and  _432
REMARK  165  A    between atoms: _432  and  _433
REMARK  166  A    between atoms: _436  and  _438
REMARK  167  A    between atoms: _438  and  _439
REMARK  168  A    between atoms: _438  and  _441
REMARK  169  A    between atoms: _441  and  _442
REMARK  170  A    between atoms: _444  and  _446
REMARK  171  A    between atoms: _446  and  _447
REMARK  172  A    between atoms: _446  and  _449
REMARK  173  A    between atoms: _449  and  _450
REMARK  174  A    between atoms: _453  and  _455
REMARK  175  A    between atoms: _455  and  _456
REMARK  176  A    between atoms: _455  and  _458
REMARK  177  A    between atoms: _458  and  _459
REMARK  178  A    between atoms: _462  and  _464
REMARK  179  A    between atoms: _464  and  _465
REMARK  180  A    between atoms: _464  and  _467
REMARK  181  A    between atoms: _467  and  _468
REMARK  182  A    between atoms: _472  and  _473
REMARK  183  A    between atoms: _479  and  _480
REMARK  184  A    between atoms: _485  and  _487
REMARK  185  A    between atoms: _487  and  _488
REMARK  186  A    between atoms: _487  and  _490
REMARK  187  A    between atoms: _492  and  _494
REMARK  188  A    between atoms: _494  and  _495
REMARK  189  A    between atoms: _494  and  _497
REMARK  190  A    between atoms: _497  and  _498
REMARK  191  A    between atoms: _503  and  _505
REMARK  192  A    between atoms: _505  and  _506
REMARK  193  A    between atoms: _505  and  _508
REMARK  194  A    between atoms: _508  and  _509
REMARK  195  A    between atoms: _512  and  _514
REMARK  196  A    between atoms: _514  and  _515
REMARK  197  A    between atoms: _514  and  _517
REMARK  198  A    between atoms: _520  and  _522
REMARK  199  A    between atoms: _522  and  _523
REMARK  200  A    between atoms: _522  and  _525
REMARK  201  A    between atoms: _525  and  _526
REMARK  202  A    between atoms: _529  and  _531
REMARK  203  A    between atoms: _531  and  _532
REMARK  204  A    between atoms: _531  and  _534
REMARK  205  A    between atoms: _534  and  _535
REMARK  206  A    between atoms: _545  and  _547
REMARK  207  A    between atoms: _547  and  _548
REMARK  208  A    between atoms: _547  and  _550
REMARK  209  A    between atoms: _550  and  _551
REMARK  210  A    between atoms: _551  and  _552
REMARK  211  A    between atoms: _554  and  _556
REMARK  212  A    between atoms: _556  and  _557
REMARK  213  A    between atoms: _556  and  _559
REMARK  214  A    between atoms: _559  and  _560
REMARK  215  A    between atoms: _565  and  _567
REMARK  216  A    between atoms: _567  and  _568
REMARK  217  A    between atoms: _567  and  _570
REMARK  218  A    between atoms: _570  and  _571
REMARK  219  A    between atoms: _571  and  _572
REMARK  220  A    between atoms: _572  and  _573
REMARK                            x       y       z     vdW  Elec       q    Type
REMARK                         _______ _______ _______ _____ _____    ______ ____
ROOT
ATOM      1  O   HOH     1      24.987  10.515  17.191  0.00  0.00    +0.000 OA
ENDROOT
TORSDOF 0
REMARK  Name = ../refined-set-2016/4qj0/4qj0_pocket.pdb
REMARK  220 active torsions:
REMARK  status: ('A' for Active; 'I' for Inactive)
REMARK    1  A    between atoms: _1  and  _5
REMARK    2  A    between atoms: _5  and  _6
REMARK    3  A    between atoms: _5  and  _8
REMARK    4  A    between atoms: _8  and  _9
REMARK    5  A    between atoms: _9  and  _10
REMARK    6  A    between atoms: _10  and  _11
REMARK    7  A    between atoms: _11  and  _12
REMARK    8  A    between atoms: _16  and  _18
REMARK    9  A    between atoms: _18  and  _19
REMARK   10  A    between atoms: _18  and  _21
REMARK   11  A    between atoms: _21  and  _22
REMARK   12  A    between atoms: _32  and  _34
REMARK   13  A    between atoms: _34  and  _35
REMARK   14  A    between atoms: _34  and  _37
REMARK   15  A    between atoms: _37  and  _38
REMARK   16  A    between atoms: _43  and  _44
REMARK   17  A    between atoms: _46  and  _48
REMARK   18  A    between atoms: _48  and  _49
REMARK   19  A    between atoms: _48  and  _51
REMARK   20  A    between atoms: _51  and  _52
REMARK   21  A    between atoms: _57  and  _58
REMARK   22  A    between atoms: _60  and  _62
REMARK   23  A    between atoms: _62  and  _63
REMARK   24  A    between atoms: _62  and  _65
REMARK   25  A    between atoms: _65  and  _66
REMARK   26  A    between atoms: _69  and  _70
REMARK   27  A    between atoms: _75  and  _77
REMARK   28  A    between atoms: _77  and  _78
REMARK   29  A    between atoms: _77  and  _80
REMARK   30  A    between atoms: _80  and  _81
REMARK   31  A    between atoms: _84  and  _86
REMARK   32  A    between atoms: _86  and  _87
REMARK   33  A    between atoms: _86  and  _89
REMARK   34  A    between atoms: _89  and  _90
REMARK   35  A    between atoms: _95  and  _97
REMARK   36  A    between atoms: _97  and  _98
REMARK   37  A    between atoms: _100  and  _102
REMARK   38  A    between atoms: _102  and  _103
REMARK   39  A    between atoms: _102  and  _105
REMARK   40  A    between atoms: _105  and  _106
REMARK   41  A    between atoms: _111  and  _113
REMARK   42  A    between atoms: _113  and  _114
REMARK   43  A    between atoms: _113  and  _116
REMARK   44  A    between atoms: _116  and  _117
REMARK   45  A    between atoms: _119  and  _121
REMARK   46  A    between atoms: _121  and  _122
REMARK   47  A    between atoms: _121  and  _124
REMARK   48  A    between atoms: _127  and  _129
REMARK   49  A    between atoms: _129  and  _130
REMARK   50  A    between atoms: _129  and  _132
REMARK   51  A    between atoms: _132  and  _133
REMARK   52  A    between atoms: _133  and  _134
REMARK   53  A    between atoms: _134  and  _135
REMARK   54  A    between atoms: _135  and  _136
REMARK   55  A    between atoms: _140  and  _142
REMARK   56  A    between atoms: _142  and  _143
REMARK   57  A    between atoms: _142  and  _145
REMARK   58  A    between atoms: _145  and  _146
REMARK   59  A    between atoms: _149  and  _151
REMARK   60  A    between atoms: _151  and  _152
REMARK   61  A    between atoms: _151  and  _154
REMARK   62  A    between atoms: _154  and  _155
REMARK   63  A    between atoms: _160  and  _162
REMARK   64  A    between atoms: _162  and  _163
REMARK   65  A    between atoms: _166  and  _168
REMARK   66  A    between atoms: _168  and  _169
REMARK   67  A    between atoms: _168  and  _171
REMARK   68  A    between atoms: _171  and  _172
REMARK   69  A    between atoms: _175  and  _177
REMARK   70  A    between atoms: _177  and  _178
REMARK   71  A    between atoms: _177  and  _180
REMARK   72  A    between atoms: _180  and  _181
REMARK   73  A    between atoms: _181  and  _182
REMARK   74  A    between atoms: _187  and  _189
REMARK   75  A    between atoms: _189  and  _190
REMARK   76  A    between atoms: _189  and  _192
REMARK   77  A    between atoms: _192  and  _193
REMARK   78  A    between atoms: _196  and  _198
REMARK   79  A    between atoms: _209  and  _212
REMARK   80  A    between atoms: _212  and  _213
REMARK   81  A    between atoms: _218  and  _219
REMARK   82  A    between atoms: _227  and  _229
REMARK   83  A    between atoms: _229  and  _230
REMARK   84  A    between atoms: _229  and  _232
REMARK   85  A    between atoms: _232  and  _233
REMARK   86  A    between atoms: _243  and  _245
REMARK   87  A    between atoms: _245  and  _246
REMARK   88  A    between atoms: _245  and  _248
REMARK   89  A    between atoms: _248  and  _249
REMARK   90  A    between atoms: _249  and  _250
REMARK   91  A    between atoms: _253  and  _255
REMARK   92  A    between atoms: _255  and  _256
REMARK   93  A    between atoms: _255  and  _258
REMARK   94  A    between atoms: _258  and  _259
REMARK   95  A    between atoms: _264  and  _266
REMARK   96  A    between atoms: _266  and  _267
REMARK   97  A    between atoms: _266  and  _269
REMARK   98  A    between atoms: _269  and  _270
REMARK   99  A    between atoms: _270  and  _271
REMARK  100  A    between atoms: _274  and  _276
REMARK  101  A    between atoms: _276  and  _277
REMARK  102  A    between atoms: _276  and  _279
REMARK  103  A    between atoms: _279  and  _280
REMARK  104  A    between atoms: _283  and  _285
REMARK  105  A    between atoms: _285  and  _286
REMARK  106  A    between atoms: _285  and  _288
REMARK  107  A    between atoms: _288  and  _289
REMARK  108  A    between atoms: _290  and  ZN_582
REMARK  109  A    between atoms: _294  and  _296
REMARK  110  A    between atoms: _296  and  _297
REMARK  111  A    between atoms: _296  and  _299
REMARK  112  A    between atoms: _299  and  _300
REMARK  113  A    between atoms: _303  and  _305
REMARK  114  A    between atoms: _305  and  _306
REMARK  115  A    between atoms: _305  and  _308
REMARK  116  A    between atoms: _311  and  _313
REMARK  117  A    between atoms: _313  and  _314
REMARK  118  A    between atoms: _313  and  _316
REMARK  119  A    between atoms: _316  and  _317
REMARK  120  A    between atoms: _322  and  _324
REMARK  121  A    between atoms: _324  and  _325
REMARK  122  A    between atoms: _324  and  _327
REMARK  123  A    between atoms: _327  and  _328
REMARK  124  A    between atoms: _333  and  _334
REMARK  125  A    between atoms: _336  and  _338
REMARK  126  A    between atoms: _338  and  _339
REMARK  127  A    between atoms: _338  and  _341
REMARK  128  A    between atoms: _341  and  _342
REMARK  129  A    between atoms: _345  and  _347
REMARK  130  A    between atoms: _347  and  _348
REMARK  131  A    between atoms: _351  and  _353
REMARK  132  A    between atoms: _353  and  _354
REMARK  133  A    between atoms: _353  and  _356
REMARK  134  A    between atoms: _356  and  _357
REMARK  135  A    between atoms: _359  and  _361
REMARK  136  A    between atoms: _361  and  _362
REMARK  137  A    between atoms: _361  and  _364
REMARK  138  A    between atoms: _364  and  _365
REMARK  139  A    between atoms: _368  and  _370
REMARK  140  A    between atoms: _370  and  _371
REMARK  141  A    between atoms: _374  and  _376
REMARK  142  A    between atoms: _376  and  _377
REMARK  143  A    between atoms: _376  and  _379
REMARK  144  A    between atoms: _379  and  _380
REMARK  145  A    between atoms: _382  and  _384
REMARK  146  A    between atoms: _384  and  _385
REMARK  147  A    between atoms: _384  and  _387
REMARK  148  A    between atoms: _387  and  _388
REMARK  149  A    between atoms: _393  and  _395
REMARK  150  A    between atoms: _395  and  _396
REMARK  151  A    between atoms: _398  and  _400
REMARK  152  A    between atoms: _400  and  _401
REMARK  153  A    between atoms: _400  and  _403
REMARK  154  A    between atoms: _403  and  _404
REMARK  155  A    between atoms: _407  and  _409
REMARK  156  A    between atoms: _409  and  _410
REMARK  157  A    between atoms: _413  and  _415
REMARK  158  A    between atoms: _415  and  _416
REMARK  159  A    between atoms: _415  and  _418
REMARK  160  A    between atoms: _421  and  _423
REMARK  161  A    between atoms: _423  and  _424
REMARK  162  A    between atoms: _423  and  _426
REMARK  163  A    between atoms: _426  and  _427
REMARK  164  A    between atoms: _430  and  _432
REMARK  165  A    between atoms: _432  and  _433
REMARK  166  A    between atoms: _436  and  _438
REMARK  167  A    between atoms: _438  and  _439
REMARK  168  A    between atoms: _438  and  _441
REMARK  169  A    between atoms: _441  and  _442
REMARK  170  A    between atoms: _444  and  _446
REMARK  171  A    between atoms: _446  and  _447
REMARK  172  A    between atoms: _446  and  _449
REMARK  173  A    between atoms: _449  and  _450
REMARK  174  A    between atoms: _453  and  _455
REMARK  175  A    between atoms: _455  and  _456
REMARK  176  A    between atoms: _455  and  _458
REMARK  177  A    between atoms: _458  and  _459
REMARK  178  A    between atoms: _462  and  _464
REMARK  179  A    between atoms: _464  and  _465
REMARK  180  A    between atoms: _464  and  _467
REMARK  181  A    between atoms: _467  and  _468
REMARK  182  A    between atoms: _472  and  _473
REMARK  183  A    between atoms: _479  and  _480
REMARK  184  A    between atoms: _485  and  _487
REMARK  185  A    between atoms: _487  and  _488
REMARK  186  A    between atoms: _487  and  _490
REMARK  187  A    between atoms: _492  and  _494
REMARK  188  A    between atoms: _494  and  _495
REMARK  189  A    between atoms: _494  and  _497
REMARK  190  A    between atoms: _497  and  _498
REMARK  191  A    between atoms: _503  and  _505
REMARK  192  A    between atoms: _505  and  _506
REMARK  193  A    between atoms: _505  and  _508
REMARK  194  A    between atoms: _508  and  _509
REMARK  195  A    between atoms: _512  and  _514
REMARK  196  A    between atoms: _514  and  _515
REMARK  197  A    between atoms: _514  and  _517
REMARK  198  A    between atoms: _520  and  _522
REMARK  199  A    between atoms: _522  and  _523
REMARK  200  A    between atoms: _522  and  _525
REMARK  201  A    between atoms: _525  and  _526
REMARK  202  A    between atoms: _529  and  _531
REMARK  203  A    between atoms: _531  and  _532
REMARK  204  A    between atoms: _531  and  _534
REMARK  205  A    between atoms: _534  and  _535
REMARK  206  A    between atoms: _545  and  _547
REMARK  207  A    between atoms: _547  and  _548
REMARK  208  A    between atoms: _547  and  _550
REMARK  209  A    between atoms: _550  and  _551
REMARK  210  A    between atoms: _551  and  _552
REMARK  211  A    between atoms: _554  and  _556
REMARK  212  A    between atoms: _556  and  _557
REMARK  213  A    between atoms: _556  and  _559
REMARK  214  A    between atoms: _559  and  _560
REMARK  215  A    between atoms: _565  and  _567
REMARK  216  A    between atoms: _567  and  _568
REMARK  217  A    between atoms: _567  and  _570
REMARK  218  A    between atoms: _570  and  _571
REMARK  219  A    between atoms: _571  and  _572
REMARK  220  A    between atoms: _572  and  _573
REMARK                            x       y       z     vdW  Elec       q    Type
REMARK                         _______ _______ _______ _____ _____    ______ ____
ROOT
ATOM      1  O   HOH     1      22.773  16.627   7.999  0.00  0.00    +0.000 OA
ENDROOT
TORSDOF 0
REMARK  Name = ../refined-set-2016/4qj0/4qj0_pocket.pdb
REMARK  220 active torsions:
REMARK  status: ('A' for Active; 'I' for Inactive)
REMARK    1  A    between atoms: _1  and  _5
REMARK    2  A    between atoms: _5  and  _6
REMARK    3  A    between atoms: _5  and  _8
REMARK    4  A    between atoms: _8  and  _9
REMARK    5  A    between atoms: _9  and  _10
REMARK    6  A    between atoms: _10  and  _11
REMARK    7  A    between atoms: _11  and  _12
REMARK    8  A    between atoms: _16  and  _18
REMARK    9  A    between atoms: _18  and  _19
REMARK   10  A    between atoms: _18  and  _21
REMARK   11  A    between atoms: _21  and  _22
REMARK   12  A    between atoms: _32  and  _34
REMARK   13  A    between atoms: _34  and  _35
REMARK   14  A    between atoms: _34  and  _37
REMARK   15  A    between atoms: _37  and  _38
REMARK   16  A    between atoms: _43  and  _44
REMARK   17  A    between atoms: _46  and  _48
REMARK   18  A    between atoms: _48  and  _49
REMARK   19  A    between atoms: _48  and  _51
REMARK   20  A    between atoms: _51  and  _52
REMARK   21  A    between atoms: _57  and  _58
REMARK   22  A    between atoms: _60  and  _62
REMARK   23  A    between atoms: _62  and  _63
REMARK   24  A    between atoms: _62  and  _65
REMARK   25  A    between atoms: _65  and  _66
REMARK   26  A    between atoms: _69  and  _70
REMARK   27  A    between atoms: _75  and  _77
REMARK   28  A    between atoms: _77  and  _78
REMARK   29  A    between atoms: _77  and  _80
REMARK   30  A    between atoms: _80  and  _81
REMARK   31  A    between atoms: _84  and  _86
REMARK   32  A    between atoms: _86  and  _87
REMARK   33  A    between atoms: _86  and  _89
REMARK   34  A    between atoms: _89  and  _90
REMARK   35  A    between atoms: _95  and  _97
REMARK   36  A    between atoms: _97  and  _98
REMARK   37  A    between atoms: _100  and  _102
REMARK   38  A    between atoms: _102  and  _103
REMARK   39  A    between atoms: _102  and  _105
REMARK   40  A    between atoms: _105  and  _106
REMARK   41  A    between atoms: _111  and  _113
REMARK   42  A    between atoms: _113  and  _114
REMARK   43  A    between atoms: _113  and  _116
REMARK   44  A    between atoms: _116  and  _117
REMARK   45  A    between atoms: _119  and  _121
REMARK   46  A    between atoms: _121  and  _122
REMARK   47  A    between atoms: _121  and  _124
REMARK   48  A    between atoms: _127  and  _129
REMARK   49  A    between atoms: _129  and  _130
REMARK   50  A    between atoms: _129  and  _132
REMARK   51  A    between atoms: _132  and  _133
REMARK   52  A    between atoms: _133  and  _134
REMARK   53  A    between atoms: _134  and  _135
REMARK   54  A    between atoms: _135  and  _136
REMARK   55  A    between atoms: _140  and  _142
REMARK   56  A    between atoms: _142  and  _143
REMARK   57  A    between atoms: _142  and  _145
REMARK   58  A    between atoms: _145  and  _146
REMARK   59  A    between atoms: _149  and  _151
REMARK   60  A    between atoms: _151  and  _152
REMARK   61  A    between atoms: _151  and  _154
REMARK   62  A    between atoms: _154  and  _155
REMARK   63  A    between atoms: _160  and  _162
REMARK   64  A    between atoms: _162  and  _163
REMARK   65  A    between atoms: _166  and  _168
REMARK   66  A    between atoms: _168  and  _169
REMARK   67  A    between atoms: _168  and  _171
REMARK   68  A    between atoms: _171  and  _172
REMARK   69  A    between atoms: _175  and  _177
REMARK   70  A    between atoms: _177  and  _178
REMARK   71  A    between atoms: _177  and  _180
REMARK   72  A    between atoms: _180  and  _181
REMARK   73  A    between atoms: _181  and  _182
REMARK   74  A    between atoms: _187  and  _189
REMARK   75  A    between atoms: _189  and  _190
REMARK   76  A    between atoms: _189  and  _192
REMARK   77  A    between atoms: _192  and  _193
REMARK   78  A    between atoms: _196  and  _198
REMARK   79  A    between atoms: _209  and  _212
REMARK   80  A    between atoms: _212  and  _213
REMARK   81  A    between atoms: _218  and  _219
REMARK   82  A    between atoms: _227  and  _229
REMARK   83  A    between atoms: _229  and  _230
REMARK   84  A    between atoms: _229  and  _232
REMARK   85  A    between atoms: _232  and  _233
REMARK   86  A    between atoms: _243  and  _245
REMARK   87  A    between atoms: _245  and  _246
REMARK   88  A    between atoms: _245  and  _248
REMARK   89  A    between atoms: _248  and  _249
REMARK   90  A    between atoms: _249  and  _250
REMARK   91  A    between atoms: _253  and  _255
REMARK   92  A    between atoms: _255  and  _256
REMARK   93  A    between atoms: _255  and  _258
REMARK   94  A    between atoms: _258  and  _259
REMARK   95  A    between atoms: _264  and  _266
REMARK   96  A    between atoms: _266  and  _267
REMARK   97  A    between atoms: _266  and  _269
REMARK   98  A    between atoms: _269  and  _270
REMARK   99  A    between atoms: _270  and  _271
REMARK  100  A    between atoms: _274  and  _276
REMARK  101  A    between atoms: _276  and  _277
REMARK  102  A    between atoms: _276  and  _279
REMARK  103  A    between atoms: _279  and  _280
REMARK  104  A    between atoms: _283  and  _285
REMARK  105  A    between atoms: _285  and  _286
REMARK  106  A    between atoms: _285  and  _288
REMARK  107  A    between atoms: _288  and  _289
REMARK  108  A    between atoms: _290  and  ZN_582
REMARK  109  A    between atoms: _294  and  _296
REMARK  110  A    between atoms: _296  and  _297
REMARK  111  A    between atoms: _296  and  _299
REMARK  112  A    between atoms: _299  and  _300
REMARK  113  A    between atoms: _303  and  _305
REMARK  114  A    between atoms: _305  and  _306
REMARK  115  A    between atoms: _305  and  _308
REMARK  116  A    between atoms: _311  and  _313
REMARK  117  A    between atoms: _313  and  _314
REMARK  118  A    between atoms: _313  and  _316
REMARK  119  A    between atoms: _316  and  _317
REMARK  120  A    between atoms: _322  and  _324
REMARK  121  A    between atoms: _324  and  _325
REMARK  122  A    between atoms: _324  and  _327
REMARK  123  A    between atoms: _327  and  _328
REMARK  124  A    between atoms: _333  and  _334
REMARK  125  A    between atoms: _336  and  _338
REMARK  126  A    between atoms: _338  and  _339
REMARK  127  A    between atoms: _338  and  _341
REMARK  128  A    between atoms: _341  and  _342
REMARK  129  A    between atoms: _345  and  _347
REMARK  130  A    between atoms: _347  and  _348
REMARK  131  A    between atoms: _351  and  _353
REMARK  132  A    between atoms: _353  and  _354
REMARK  133  A    between atoms: _353  and  _356
REMARK  134  A    between atoms: _356  and  _357
REMARK  135  A    between atoms: _359  and  _361
REMARK  136  A    between atoms: _361  and  _362
REMARK  137  A    between atoms: _361  and  _364
REMARK  138  A    between atoms: _364  and  _365
REMARK  139  A    between atoms: _368  and  _370
REMARK  140  A    between atoms: _370  and  _371
REMARK  141  A    between atoms: _374  and  _376
REMARK  142  A    between atoms: _376  and  _377
REMARK  143  A    between atoms: _376  and  _379
REMARK  144  A    between atoms: _379  and  _380
REMARK  145  A    between atoms: _382  and  _384
REMARK  146  A    between atoms: _384  and  _385
REMARK  147  A    between atoms: _384  and  _387
REMARK  148  A    between atoms: _387  and  _388
REMARK  149  A    between atoms: _393  and  _395
REMARK  150  A    between atoms: _395  and  _396
REMARK  151  A    between atoms: _398  and  _400
REMARK  152  A    between atoms: _400  and  _401
REMARK  153  A    between atoms: _400  and  _403
REMARK  154  A    between atoms: _403  and  _404
REMARK  155  A    between atoms: _407  and  _409
REMARK  156  A    between atoms: _409  and  _410
REMARK  157  A    between atoms: _413  and  _415
REMARK  158  A    between atoms: _415  and  _416
REMARK  159  A    between atoms: _415  and  _418
REMARK  160  A    between atoms: _421  and  _423
REMARK  161  A    between atoms: _423  and  _424
REMARK  162  A    between atoms: _423  and  _426
REMARK  163  A    between atoms: _426  and  _427
REMARK  164  A    between atoms: _430  and  _432
REMARK  165  A    between atoms: _432  and  _433
REMARK  166  A    between atoms: _436  and  _438
REMARK  167  A    between atoms: _438  and  _439
REMARK  168  A    between atoms: _438  and  _441
REMARK  169  A    between atoms: _441  and  _442
REMARK  170  A    between atoms: _444  and  _446
REMARK  171  A    between atoms: _446  and  _447
REMARK  172  A    between atoms: _446  and  _449
REMARK  173  A    between atoms: _449  and  _450
REMARK  174  A    between atoms: _453  and  _455
REMARK  175  A    between atoms: _455  and  _456
REMARK  176  A    between atoms: _455  and  _458
REMARK  177  A    between atoms: _458  and  _459
REMARK  178  A    between atoms: _462  and  _464
REMARK  179  A    between atoms: _464  and  _465
REMARK  180  A    between atoms: _464  and  _467
REMARK  181  A    between atoms: _467  and  _468
REMARK  182  A    between atoms: _472  and  _473
REMARK  183  A    between atoms: _479  and  _480
REMARK  184  A    between atoms: _485  and  _487
REMARK  185  A    between atoms: _487  and  _488
REMARK  186  A    between atoms: _487  and  _490
REMARK  187  A    between atoms: _492  and  _494
REMARK  188  A    between atoms: _494  and  _495
REMARK  189  A    between atoms: _494  and  _497
REMARK  190  A    between atoms: _497  and  _498
REMARK  191  A    between atoms: _503  and  _505
REMARK  192  A    between atoms: _505  and  _506
REMARK  193  A    between atoms: _505  and  _508
REMARK  194  A    between atoms: _508  and  _509
REMARK  195  A    between atoms: _512  and  _514
REMARK  196  A    between atoms: _514  and  _515
REMARK  197  A    between atoms: _514  and  _517
REMARK  198  A    between atoms: _520  and  _522
REMARK  199  A    between atoms: _522  and  _523
REMARK  200  A    between atoms: _522  and  _525
REMARK  201  A    between atoms: _525  and  _526
REMARK  202  A    between atoms: _529  and  _531
REMARK  203  A    between atoms: _531  and  _532
REMARK  204  A    between atoms: _531  and  _534
REMARK  205  A    between atoms: _534  and  _535
REMARK  206  A    between atoms: _545  and  _547
REMARK  207  A    between atoms: _547  and  _548
REMARK  208  A    between atoms: _547  and  _550
REMARK  209  A    between atoms: _550  and  _551
REMARK  210  A    between atoms: _551  and  _552
REMARK  211  A    between atoms: _554  and  _556
REMARK  212  A    between atoms: _556  and  _557
REMARK  213  A    between atoms: _556  and  _559
REMARK  214  A    between atoms: _559  and  _560
REMARK  215  A    between atoms: _565  and  _567
REMARK  216  A    between atoms: _567  and  _568
REMARK  217  A    between atoms: _567  and  _570
REMARK  218  A    between atoms: _570  and  _571
REMARK  219  A    between atoms: _571  and  _572
REMARK  220  A    between atoms: _572  and  _573
REMARK                            x       y       z     vdW  Elec       q    Type
REMARK                         _______ _______ _______ _____ _____    ______ ____
ROOT
ATOM      1  O   HOH     1      25.989  11.784   6.438  0.00  0.00    +0.000 OA
ENDROOT
TORSDOF 0
REMARK  Name = ../refined-set-2016/4qj0/4qj0_pocket.pdb
REMARK  220 active torsions:
REMARK  status: ('A' for Active; 'I' for Inactive)
REMARK    1  A    between atoms: _1  and  _5
REMARK    2  A    between atoms: _5  and  _6
REMARK    3  A    between atoms: _5  and  _8
REMARK    4  A    between atoms: _8  and  _9
REMARK    5  A    between atoms: _9  and  _10
REMARK    6  A    between atoms: _10  and  _11
REMARK    7  A    between atoms: _11  and  _12
REMARK    8  A    between atoms: _16  and  _18
REMARK    9  A    between atoms: _18  and  _19
REMARK   10  A    between atoms: _18  and  _21
REMARK   11  A    between atoms: _21  and  _22
REMARK   12  A    between atoms: _32  and  _34
REMARK   13  A    between atoms: _34  and  _35
REMARK   14  A    between atoms: _34  and  _37
REMARK   15  A    between atoms: _37  and  _38
REMARK   16  A    between atoms: _43  and  _44
REMARK   17  A    between atoms: _46  and  _48
REMARK   18  A    between atoms: _48  and  _49
REMARK   19  A    between atoms: _48  and  _51
REMARK   20  A    between atoms: _51  and  _52
REMARK   21  A    between atoms: _57  and  _58
REMARK   22  A    between atoms: _60  and  _62
REMARK   23  A    between atoms: _62  and  _63
REMARK   24  A    between atoms: _62  and  _65
REMARK   25  A    between atoms: _65  and  _66
REMARK   26  A    between atoms: _69  and  _70
REMARK   27  A    between atoms: _75  and  _77
REMARK   28  A    between atoms: _77  and  _78
REMARK   29  A    between atoms: _77  and  _80
REMARK   30  A    between atoms: _80  and  _81
REMARK   31  A    between atoms: _84  and  _86
REMARK   32  A    between atoms: _86  and  _87
REMARK   33  A    between atoms: _86  and  _89
REMARK   34  A    between atoms: _89  and  _90
REMARK   35  A    between atoms: _95  and  _97
REMARK   36  A    between atoms: _97  and  _98
REMARK   37  A    between atoms: _100  and  _102
REMARK   38  A    between atoms: _102  and  _103
REMARK   39  A    between atoms: _102  and  _105
REMARK   40  A    between atoms: _105  and  _106
REMARK   41  A    between atoms: _111  and  _113
REMARK   42  A    between atoms: _113  and  _114
REMARK   43  A    between atoms: _113  and  _116
REMARK   44  A    between atoms: _116  and  _117
REMARK   45  A    between atoms: _119  and  _121
REMARK   46  A    between atoms: _121  and  _122
REMARK   47  A    between atoms: _121  and  _124
REMARK   48  A    between atoms: _127  and  _129
REMARK   49  A    between atoms: _129  and  _130
REMARK   50  A    between atoms: _129  and  _132
REMARK   51  A    between atoms: _132  and  _133
REMARK   52  A    between atoms: _133  and  _134
REMARK   53  A    between atoms: _134  and  _135
REMARK   54  A    between atoms: _135  and  _136
REMARK   55  A    between atoms: _140  and  _142
REMARK   56  A    between atoms: _142  and  _143
REMARK   57  A    between atoms: _142  and  _145
REMARK   58  A    between atoms: _145  and  _146
REMARK   59  A    between atoms: _149  and  _151
REMARK   60  A    between atoms: _151  and  _152
REMARK   61  A    between atoms: _151  and  _154
REMARK   62  A    between atoms: _154  and  _155
REMARK   63  A    between atoms: _160  and  _162
REMARK   64  A    between atoms: _162  and  _163
REMARK   65  A    between atoms: _166  and  _168
REMARK   66  A    between atoms: _168  and  _169
REMARK   67  A    between atoms: _168  and  _171
REMARK   68  A    between atoms: _171  and  _172
REMARK   69  A    between atoms: _175  and  _177
REMARK   70  A    between atoms: _177  and  _178
REMARK   71  A    between atoms: _177  and  _180
REMARK   72  A    between atoms: _180  and  _181
REMARK   73  A    between atoms: _181  and  _182
REMARK   74  A    between atoms: _187  and  _189
REMARK   75  A    between atoms: _189  and  _190
REMARK   76  A    between atoms: _189  and  _192
REMARK   77  A    between atoms: _192  and  _193
REMARK   78  A    between atoms: _196  and  _198
REMARK   79  A    between atoms: _209  and  _212
REMARK   80  A    between atoms: _212  and  _213
REMARK   81  A    between atoms: _218  and  _219
REMARK   82  A    between atoms: _227  and  _229
REMARK   83  A    between atoms: _229  and  _230
REMARK   84  A    between atoms: _229  and  _232
REMARK   85  A    between atoms: _232  and  _233
REMARK   86  A    between atoms: _243  and  _245
REMARK   87  A    between atoms: _245  and  _246
REMARK   88  A    between atoms: _245  and  _248
REMARK   89  A    between atoms: _248  and  _249
REMARK   90  A    between atoms: _249  and  _250
REMARK   91  A    between atoms: _253  and  _255
REMARK   92  A    between atoms: _255  and  _256
REMARK   93  A    between atoms: _255  and  _258
REMARK   94  A    between atoms: _258  and  _259
REMARK   95  A    between atoms: _264  and  _266
REMARK   96  A    between atoms: _266  and  _267
REMARK   97  A    between atoms: _266  and  _269
REMARK   98  A    between atoms: _269  and  _270
REMARK   99  A    between atoms: _270  and  _271
REMARK  100  A    between atoms: _274  and  _276
REMARK  101  A    between atoms: _276  and  _277
REMARK  102  A    between atoms: _276  and  _279
REMARK  103  A    between atoms: _279  and  _280
REMARK  104  A    between atoms: _283  and  _285
REMARK  105  A    between atoms: _285  and  _286
REMARK  106  A    between atoms: _285  and  _288
REMARK  107  A    between atoms: _288  and  _289
REMARK  108  A    between atoms: _290  and  ZN_582
REMARK  109  A    between atoms: _294  and  _296
REMARK  110  A    between atoms: _296  and  _297
REMARK  111  A    between atoms: _296  and  _299
REMARK  112  A    between atoms: _299  and  _300
REMARK  113  A    between atoms: _303  and  _305
REMARK  114  A    between atoms: _305  and  _306
REMARK  115  A    between atoms: _305  and  _308
REMARK  116  A    between atoms: _311  and  _313
REMARK  117  A    between atoms: _313  and  _314
REMARK  118  A    between atoms: _313  and  _316
REMARK  119  A    between atoms: _316  and  _317
REMARK  120  A    between atoms: _322  and  _324
REMARK  121  A    between atoms: _324  and  _325
REMARK  122  A    between atoms: _324  and  _327
REMARK  123  A    between atoms: _327  and  _328
REMARK  124  A    between atoms: _333  and  _334
REMARK  125  A    between atoms: _336  and  _338
REMARK  126  A    between atoms: _338  and  _339
REMARK  127  A    between atoms: _338  and  _341
REMARK  128  A    between atoms: _341  and  _342
REMARK  129  A    between atoms: _345  and  _347
REMARK  130  A    between atoms: _347  and  _348
REMARK  131  A    between atoms: _351  and  _353
REMARK  132  A    between atoms: _353  and  _354
REMARK  133  A    between atoms: _353  and  _356
REMARK  134  A    between atoms: _356  and  _357
REMARK  135  A    between atoms: _359  and  _361
REMARK  136  A    between atoms: _361  and  _362
REMARK  137  A    between atoms: _361  and  _364
REMARK  138  A    between atoms: _364  and  _365
REMARK  139  A    between atoms: _368  and  _370
REMARK  140  A    between atoms: _370  and  _371
REMARK  141  A    between atoms: _374  and  _376
REMARK  142  A    between atoms: _376  and  _377
REMARK  143  A    between atoms: _376  and  _379
REMARK  144  A    between atoms: _379  and  _380
REMARK  145  A    between atoms: _382  and  _384
REMARK  146  A    between atoms: _384  and  _385
REMARK  147  A    between atoms: _384  and  _387
REMARK  148  A    between atoms: _387  and  _388
REMARK  149  A    between atoms: _393  and  _395
REMARK  150  A    between atoms: _395  and  _396
REMARK  151  A    between atoms: _398  and  _400
REMARK  152  A    between atoms: _400  and  _401
REMARK  153  A    between atoms: _400  and  _403
REMARK  154  A    between atoms: _403  and  _404
REMARK  155  A    between atoms: _407  and  _409
REMARK  156  A    between atoms: _409  and  _410
REMARK  157  A    between atoms: _413  and  _415
REMARK  158  A    between atoms: _415  and  _416
REMARK  159  A    between atoms: _415  and  _418
REMARK  160  A    between atoms: _421  and  _423
REMARK  161  A    between atoms: _423  and  _424
REMARK  162  A    between atoms: _423  and  _426
REMARK  163  A    between atoms: _426  and  _427
REMARK  164  A    between atoms: _430  and  _432
REMARK  165  A    between atoms: _432  and  _433
REMARK  166  A    between atoms: _436  and  _438
REMARK  167  A    between atoms: _438  and  _439
REMARK  168  A    between atoms: _438  and  _441
REMARK  169  A    between atoms: _441  and  _442
REMARK  170  A    between atoms: _444  and  _446
REMARK  171  A    between atoms: _446  and  _447
REMARK  172  A    between atoms: _446  and  _449
REMARK  173  A    between atoms: _449  and  _450
REMARK  174  A    between atoms: _453  and  _455
REMARK  175  A    between atoms: _455  and  _456
REMARK  176  A    between atoms: _455  and  _458
REMARK  177  A    between atoms: _458  and  _459
REMARK  178  A    between atoms: _462  and  _464
REMARK  179  A    between atoms: _464  and  _465
REMARK  180  A    between atoms: _464  and  _467
REMARK  181  A    between atoms: _467  and  _468
REMARK  182  A    between atoms: _472  and  _473
REMARK  183  A    between atoms: _479  and  _480
REMARK  184  A    between atoms: _485  and  _487
REMARK  185  A    between atoms: _487  and  _488
REMARK  186  A    between atoms: _487  and  _490
REMARK  187  A    between atoms: _492  and  _494
REMARK  188  A    between atoms: _494  and  _495
REMARK  189  A    between atoms: _494  and  _497
REMARK  190  A    between atoms: _497  and  _498
REMARK  191  A    between atoms: _503  and  _505
REMARK  192  A    between atoms: _505  and  _506
REMARK  193  A    between atoms: _505  and  _508
REMARK  194  A    between atoms: _508  and  _509
REMARK  195  A    between atoms: _512  and  _514
REMARK  196  A    between atoms: _514  and  _515
REMARK  197  A    between atoms: _514  and  _517
REMARK  198  A    between atoms: _520  and  _522
REMARK  199  A    between atoms: _522  and  _523
REMARK  200  A    between atoms: _522  and  _525
REMARK  201  A    between atoms: _525  and  _526
REMARK  202  A    between atoms: _529  and  _531
REMARK  203  A    between atoms: _531  and  _532
REMARK  204  A    between atoms: _531  and  _534
REMARK  205  A    between atoms: _534  and  _535
REMARK  206  A    between atoms: _545  and  _547
REMARK  207  A    between atoms: _547  and  _548
REMARK  208  A    between atoms: _547  and  _550
REMARK  209  A    between atoms: _550  and  _551
REMARK  210  A    between atoms: _551  and  _552
REMARK  211  A    between atoms: _554  and  _556
REMARK  212  A    between atoms: _556  and  _557
REMARK  213  A    between atoms: _556  and  _559
REMARK  214  A    between atoms: _559  and  _560
REMARK  215  A    between atoms: _565  and  _567
REMARK  216  A    between atoms: _567  and  _568
REMARK  217  A    between atoms: _567  and  _570
REMARK  218  A    between atoms: _570  and  _571
REMARK  219  A    between atoms: _571  and  _572
REMARK  220  A    between atoms: _572  and  _573
REMARK                            x       y       z     vdW  Elec       q    Type
REMARK                         _______ _______ _______ _____ _____    ______ ____
ROOT
ATOM      1  O   HOH     1      32.281   8.517  12.144  0.00  0.00    +0.000 OA
ENDROOT
TORSDOF 0
REMARK  Name = ../refined-set-2016/4qj0/4qj0_pocket.pdb
REMARK  220 active torsions:
REMARK  status: ('A' for Active; 'I' for Inactive)
REMARK    1  A    between atoms: _1  and  _5
REMARK    2  A    between atoms: _5  and  _6
REMARK    3  A    between atoms: _5  and  _8
REMARK    4  A    between atoms: _8  and  _9
REMARK    5  A    between atoms: _9  and  _10
REMARK    6  A    between atoms: _10  and  _11
REMARK    7  A    between atoms: _11  and  _12
REMARK    8  A    between atoms: _16  and  _18
REMARK    9  A    between atoms: _18  and  _19
REMARK   10  A    between atoms: _18  and  _21
REMARK   11  A    between atoms: _21  and  _22
REMARK   12  A    between atoms: _32  and  _34
REMARK   13  A    between atoms: _34  and  _35
REMARK   14  A    between atoms: _34  and  _37
REMARK   15  A    between atoms: _37  and  _38
REMARK   16  A    between atoms: _43  and  _44
REMARK   17  A    between atoms: _46  and  _48
REMARK   18  A    between atoms: _48  and  _49
REMARK   19  A    between atoms: _48  and  _51
REMARK   20  A    between atoms: _51  and  _52
REMARK   21  A    between atoms: _57  and  _58
REMARK   22  A    between atoms: _60  and  _62
REMARK   23  A    between atoms: _62  and  _63
REMARK   24  A    between atoms: _62  and  _65
REMARK   25  A    between atoms: _65  and  _66
REMARK   26  A    between atoms: _69  and  _70
REMARK   27  A    between atoms: _75  and  _77
REMARK   28  A    between atoms: _77  and  _78
REMARK   29  A    between atoms: _77  and  _80
REMARK   30  A    between atoms: _80  and  _81
REMARK   31  A    between atoms: _84  and  _86
REMARK   32  A    between atoms: _86  and  _87
REMARK   33  A    between atoms: _86  and  _89
REMARK   34  A    between atoms: _89  and  _90
REMARK   35  A    between atoms: _95  and  _97
REMARK   36  A    between atoms: _97  and  _98
REMARK   37  A    between atoms: _100  and  _102
REMARK   38  A    between atoms: _102  and  _103
REMARK   39  A    between atoms: _102  and  _105
REMARK   40  A    between atoms: _105  and  _106
REMARK   41  A    between atoms: _111  and  _113
REMARK   42  A    between atoms: _113  and  _114
REMARK   43  A    between atoms: _113  and  _116
REMARK   44  A    between atoms: _116  and  _117
REMARK   45  A    between atoms: _119  and  _121
REMARK   46  A    between atoms: _121  and  _122
REMARK   47  A    between atoms: _121  and  _124
REMARK   48  A    between atoms: _127  and  _129
REMARK   49  A    between atoms: _129  and  _130
REMARK   50  A    between atoms: _129  and  _132
REMARK   51  A    between atoms: _132  and  _133
REMARK   52  A    between atoms: _133  and  _134
REMARK   53  A    between atoms: _134  and  _135
REMARK   54  A    between atoms: _135  and  _136
REMARK   55  A    between atoms: _140  and  _142
REMARK   56  A    between atoms: _142  and  _143
REMARK   57  A    between atoms: _142  and  _145
REMARK   58  A    between atoms: _145  and  _146
REMARK   59  A    between atoms: _149  and  _151
REMARK   60  A    between atoms: _151  and  _152
REMARK   61  A    between atoms: _151  and  _154
REMARK   62  A    between atoms: _154  and  _155
REMARK   63  A    between atoms: _160  and  _162
REMARK   64  A    between atoms: _162  and  _163
REMARK   65  A    between atoms: _166  and  _168
REMARK   66  A    between atoms: _168  and  _169
REMARK   67  A    between atoms: _168  and  _171
REMARK   68  A    between atoms: _171  and  _172
REMARK   69  A    between atoms: _175  and  _177
REMARK   70  A    between atoms: _177  and  _178
REMARK   71  A    between atoms: _177  and  _180
REMARK   72  A    between atoms: _180  and  _181
REMARK   73  A    between atoms: _181  and  _182
REMARK   74  A    between atoms: _187  and  _189
REMARK   75  A    between atoms: _189  and  _190
REMARK   76  A    between atoms: _189  and  _192
REMARK   77  A    between atoms: _192  and  _193
REMARK   78  A    between atoms: _196  and  _198
REMARK   79  A    between atoms: _209  and  _212
REMARK   80  A    between atoms: _212  and  _213
REMARK   81  A    between atoms: _218  and  _219
REMARK   82  A    between atoms: _227  and  _229
REMARK   83  A    between atoms: _229  and  _230
REMARK   84  A    between atoms: _229  and  _232
REMARK   85  A    between atoms: _232  and  _233
REMARK   86  A    between atoms: _243  and  _245
REMARK   87  A    between atoms: _245  and  _246
REMARK   88  A    between atoms: _245  and  _248
REMARK   89  A    between atoms: _248  and  _249
REMARK   90  A    between atoms: _249  and  _250
REMARK   91  A    between atoms: _253  and  _255
REMARK   92  A    between atoms: _255  and  _256
REMARK   93  A    between atoms: _255  and  _258
REMARK   94  A    between atoms: _258  and  _259
REMARK   95  A    between atoms: _264  and  _266
REMARK   96  A    between atoms: _266  and  _267
REMARK   97  A    between atoms: _266  and  _269
REMARK   98  A    between atoms: _269  and  _270
REMARK   99  A    between atoms: _270  and  _271
REMARK  100  A    between atoms: _274  and  _276
REMARK  101  A    between atoms: _276  and  _277
REMARK  102  A    between atoms: _276  and  _279
REMARK  103  A    between atoms: _279  and  _280
REMARK  104  A    between atoms: _283  and  _285
REMARK  105  A    between atoms: _285  and  _286
REMARK  106  A    between atoms: _285  and  _288
REMARK  107  A    between atoms: _288  and  _289
REMARK  108  A    between atoms: _290  and  ZN_582
REMARK  109  A    between atoms: _294  and  _296
REMARK  110  A    between atoms: _296  and  _297
REMARK  111  A    between atoms: _296  and  _299
REMARK  112  A    between atoms: _299  and  _300
REMARK  113  A    between atoms: _303  and  _305
REMARK  114  A    between atoms: _305  and  _306
REMARK  115  A    between atoms: _305  and  _308
REMARK  116  A    between atoms: _311  and  _313
REMARK  117  A    between atoms: _313  and  _314
REMARK  118  A    between atoms: _313  and  _316
REMARK  119  A    between atoms: _316  and  _317
REMARK  120  A    between atoms: _322  and  _324
REMARK  121  A    between atoms: _324  and  _325
REMARK  122  A    between atoms: _324  and  _327
REMARK  123  A    between atoms: _327  and  _328
REMARK  124  A    between atoms: _333  and  _334
REMARK  125  A    between atoms: _336  and  _338
REMARK  126  A    between atoms: _338  and  _339
REMARK  127  A    between atoms: _338  and  _341
REMARK  128  A    between atoms: _341  and  _342
REMARK  129  A    between atoms: _345  and  _347
REMARK  130  A    between atoms: _347  and  _348
REMARK  131  A    between atoms: _351  and  _353
REMARK  132  A    between atoms: _353  and  _354
REMARK  133  A    between atoms: _353  and  _356
REMARK  134  A    between atoms: _356  and  _357
REMARK  135  A    between atoms: _359  and  _361
REMARK  136  A    between atoms: _361  and  _362
REMARK  137  A    between atoms: _361  and  _364
REMARK  138  A    between atoms: _364  and  _365
REMARK  139  A    between atoms: _368  and  _370
REMARK  140  A    between atoms: _370  and  _371
REMARK  141  A    between atoms: _374  and  _376
REMARK  142  A    between atoms: _376  and  _377
REMARK  143  A    between atoms: _376  and  _379
REMARK  144  A    between atoms: _379  and  _380
REMARK  145  A    between atoms: _382  and  _384
REMARK  146  A    between atoms: _384  and  _385
REMARK  147  A    between atoms: _384  and  _387
REMARK  148  A    between atoms: _387  and  _388
REMARK  149  A    between atoms: _393  and  _395
REMARK  150  A    between atoms: _395  and  _396
REMARK  151  A    between atoms: _398  and  _400
REMARK  152  A    between atoms: _400  and  _401
REMARK  153  A    between atoms: _400  and  _403
REMARK  154  A    between atoms: _403  and  _404
REMARK  155  A    between atoms: _407  and  _409
REMARK  156  A    between atoms: _409  and  _410
REMARK  157  A    between atoms: _413  and  _415
REMARK  158  A    between atoms: _415  and  _416
REMARK  159  A    between atoms: _415  and  _418
REMARK  160  A    between atoms: _421  and  _423
REMARK  161  A    between atoms: _423  and  _424
REMARK  162  A    between atoms: _423  and  _426
REMARK  163  A    between atoms: _426  and  _427
REMARK  164  A    between atoms: _430  and  _432
REMARK  165  A    between atoms: _432  and  _433
REMARK  166  A    between atoms: _436  and  _438
REMARK  167  A    between atoms: _438  and  _439
REMARK  168  A    between atoms: _438  and  _441
REMARK  169  A    between atoms: _441  and  _442
REMARK  170  A    between atoms: _444  and  _446
REMARK  171  A    between atoms: _446  and  _447
REMARK  172  A    between atoms: _446  and  _449
REMARK  173  A    between atoms: _449  and  _450
REMARK  174  A    between atoms: _453  and  _455
REMARK  175  A    between atoms: _455  and  _456
REMARK  176  A    between atoms: _455  and  _458
REMARK  177  A    between atoms: _458  and  _459
REMARK  178  A    between atoms: _462  and  _464
REMARK  179  A    between atoms: _464  and  _465
REMARK  180  A    between atoms: _464  and  _467
REMARK  181  A    between atoms: _467  and  _468
REMARK  182  A    between atoms: _472  and  _473
REMARK  183  A    between atoms: _479  and  _480
REMARK  184  A    between atoms: _485  and  _487
REMARK  185  A    between atoms: _487  and  _488
REMARK  186  A    between atoms: _487  and  _490
REMARK  187  A    between atoms: _492  and  _494
REMARK  188  A    between atoms: _494  and  _495
REMARK  189  A    between atoms: _494  and  _497
REMARK  190  A    between atoms: _497  and  _498
REMARK  191  A    between atoms: _503  and  _505
REMARK  192  A    between atoms: _505  and  _506
REMARK  193  A    between atoms: _505  and  _508
REMARK  194  A    between atoms: _508  and  _509
REMARK  195  A    between atoms: _512  and  _514
REMARK  196  A    between atoms: _514  and  _515
REMARK  197  A    between atoms: _514  and  _517
REMARK  198  A    between atoms: _520  and  _522
REMARK  199  A    between atoms: _522  and  _523
REMARK  200  A    between atoms: _522  and  _525
REMARK  201  A    between atoms: _525  and  _526
REMARK  202  A    between atoms: _529  and  _531
REMARK  203  A    between atoms: _531  and  _532
REMARK  204  A    between atoms: _531  and  _534
REMARK  205  A    between atoms: _534  and  _535
REMARK  206  A    between atoms: _545  and  _547
REMARK  207  A    between atoms: _547  and  _548
REMARK  208  A    between atoms: _547  and  _550
REMARK  209  A    between atoms: _550  and  _551
REMARK  210  A    between atoms: _551  and  _552
REMARK  211  A    between atoms: _554  and  _556
REMARK  212  A    between atoms: _556  and  _557
REMARK  213  A    between atoms: _556  and  _559
REMARK  214  A    between atoms: _559  and  _560
REMARK  215  A    between atoms: _565  and  _567
REMARK  216  A    between atoms: _567  and  _568
REMARK  217  A    between atoms: _567  and  _570
REMARK  218  A    between atoms: _570  and  _571
REMARK  219  A    between atoms: _571  and  _572
REMARK  220  A    between atoms: _572  and  _573
REMARK                            x       y       z     vdW  Elec       q    Type
REMARK                         _______ _______ _______ _____ _____    ______ ____
ROOT
ATOM      1  O   HOH     1      28.472   7.739  15.148  0.00  0.00    +0.000 OA
ENDROOT
TORSDOF 0
REMARK  Name = ../refined-set-2016/4qj0/4qj0_pocket.pdb
REMARK  220 active torsions:
REMARK  status: ('A' for Active; 'I' for Inactive)
REMARK    1  A    between atoms: _1  and  _5
REMARK    2  A    between atoms: _5  and  _6
REMARK    3  A    between atoms: _5  and  _8
REMARK    4  A    between atoms: _8  and  _9
REMARK    5  A    between atoms: _9  and  _10
REMARK    6  A    between atoms: _10  and  _11
REMARK    7  A    between atoms: _11  and  _12
REMARK    8  A    between atoms: _16  and  _18
REMARK    9  A    between atoms: _18  and  _19
REMARK   10  A    between atoms: _18  and  _21
REMARK   11  A    between atoms: _21  and  _22
REMARK   12  A    between atoms: _32  and  _34
REMARK   13  A    between atoms: _34  and  _35
REMARK   14  A    between atoms: _34  and  _37
REMARK   15  A    between atoms: _37  and  _38
REMARK   16  A    between atoms: _43  and  _44
REMARK   17  A    between atoms: _46  and  _48
REMARK   18  A    between atoms: _48  and  _49
REMARK   19  A    between atoms: _48  and  _51
REMARK   20  A    between atoms: _51  and  _52
REMARK   21  A    between atoms: _57  and  _58
REMARK   22  A    between atoms: _60  and  _62
REMARK   23  A    between atoms: _62  and  _63
REMARK   24  A    between atoms: _62  and  _65
REMARK   25  A    between atoms: _65  and  _66
REMARK   26  A    between atoms: _69  and  _70
REMARK   27  A    between atoms: _75  and  _77
REMARK   28  A    between atoms: _77  and  _78
REMARK   29  A    between atoms: _77  and  _80
REMARK   30  A    between atoms: _80  and  _81
REMARK   31  A    between atoms: _84  and  _86
REMARK   32  A    between atoms: _86  and  _87
REMARK   33  A    between atoms: _86  and  _89
REMARK   34  A    between atoms: _89  and  _90
REMARK   35  A    between atoms: _95  and  _97
REMARK   36  A    between atoms: _97  and  _98
REMARK   37  A    between atoms: _100  and  _102
REMARK   38  A    between atoms: _102  and  _103
REMARK   39  A    between atoms: _102  and  _105
REMARK   40  A    between atoms: _105  and  _106
REMARK   41  A    between atoms: _111  and  _113
REMARK   42  A    between atoms: _113  and  _114
REMARK   43  A    between atoms: _113  and  _116
REMARK   44  A    between atoms: _116  and  _117
REMARK   45  A    between atoms: _119  and  _121
REMARK   46  A    between atoms: _121  and  _122
REMARK   47  A    between atoms: _121  and  _124
REMARK   48  A    between atoms: _127  and  _129
REMARK   49  A    between atoms: _129  and  _130
REMARK   50  A    between atoms: _129  and  _132
REMARK   51  A    between atoms: _132  and  _133
REMARK   52  A    between atoms: _133  and  _134
REMARK   53  A    between atoms: _134  and  _135
REMARK   54  A    between atoms: _135  and  _136
REMARK   55  A    between atoms: _140  and  _142
REMARK   56  A    between atoms: _142  and  _143
REMARK   57  A    between atoms: _142  and  _145
REMARK   58  A    between atoms: _145  and  _146
REMARK   59  A    between atoms: _149  and  _151
REMARK   60  A    between atoms: _151  and  _152
REMARK   61  A    between atoms: _151  and  _154
REMARK   62  A    between atoms: _154  and  _155
REMARK   63  A    between atoms: _160  and  _162
REMARK   64  A    between atoms: _162  and  _163
REMARK   65  A    between atoms: _166  and  _168
REMARK   66  A    between atoms: _168  and  _169
REMARK   67  A    between atoms: _168  and  _171
REMARK   68  A    between atoms: _171  and  _172
REMARK   69  A    between atoms: _175  and  _177
REMARK   70  A    between atoms: _177  and  _178
REMARK   71  A    between atoms: _177  and  _180
REMARK   72  A    between atoms: _180  and  _181
REMARK   73  A    between atoms: _181  and  _182
REMARK   74  A    between atoms: _187  and  _189
REMARK   75  A    between atoms: _189  and  _190
REMARK   76  A    between atoms: _189  and  _192
REMARK   77  A    between atoms: _192  and  _193
REMARK   78  A    between atoms: _196  and  _198
REMARK   79  A    between atoms: _209  and  _212
REMARK   80  A    between atoms: _212  and  _213
REMARK   81  A    between atoms: _218  and  _219
REMARK   82  A    between atoms: _227  and  _229
REMARK   83  A    between atoms: _229  and  _230
REMARK   84  A    between atoms: _229  and  _232
REMARK   85  A    between atoms: _232  and  _233
REMARK   86  A    between atoms: _243  and  _245
REMARK   87  A    between atoms: _245  and  _246
REMARK   88  A    between atoms: _245  and  _248
REMARK   89  A    between atoms: _248  and  _249
REMARK   90  A    between atoms: _249  and  _250
REMARK   91  A    between atoms: _253  and  _255
REMARK   92  A    between atoms: _255  and  _256
REMARK   93  A    between atoms: _255  and  _258
REMARK   94  A    between atoms: _258  and  _259
REMARK   95  A    between atoms: _264  and  _266
REMARK   96  A    between atoms: _266  and  _267
REMARK   97  A    between atoms: _266  and  _269
REMARK   98  A    between atoms: _269  and  _270
REMARK   99  A    between atoms: _270  and  _271
REMARK  100  A    between atoms: _274  and  _276
REMARK  101  A    between atoms: _276  and  _277
REMARK  102  A    between atoms: _276  and  _279
REMARK  103  A    between atoms: _279  and  _280
REMARK  104  A    between atoms: _283  and  _285
REMARK  105  A    between atoms: _285  and  _286
REMARK  106  A    between atoms: _285  and  _288
REMARK  107  A    between atoms: _288  and  _289
REMARK  108  A    between atoms: _290  and  ZN_582
REMARK  109  A    between atoms: _294  and  _296
REMARK  110  A    between atoms: _296  and  _297
REMARK  111  A    between atoms: _296  and  _299
REMARK  112  A    between atoms: _299  and  _300
REMARK  113  A    between atoms: _303  and  _305
REMARK  114  A    between atoms: _305  and  _306
REMARK  115  A    between atoms: _305  and  _308
REMARK  116  A    between atoms: _311  and  _313
REMARK  117  A    between atoms: _313  and  _314
REMARK  118  A    between atoms: _313  and  _316
REMARK  119  A    between atoms: _316  and  _317
REMARK  120  A    between atoms: _322  and  _324
REMARK  121  A    between atoms: _324  and  _325
REMARK  122  A    between atoms: _324  and  _327
REMARK  123  A    between atoms: _327  and  _328
REMARK  124  A    between atoms: _333  and  _334
REMARK  125  A    between atoms: _336  and  _338
REMARK  126  A    between atoms: _338  and  _339
REMARK  127  A    between atoms: _338  and  _341
REMARK  128  A    between atoms: _341  and  _342
REMARK  129  A    between atoms: _345  and  _347
REMARK  130  A    between atoms: _347  and  _348
REMARK  131  A    between atoms: _351  and  _353
REMARK  132  A    between atoms: _353  and  _354
REMARK  133  A    between atoms: _353  and  _356
REMARK  134  A    between atoms: _356  and  _357
REMARK  135  A    between atoms: _359  and  _361
REMARK  136  A    between atoms: _361  and  _362
REMARK  137  A    between atoms: _361  and  _364
REMARK  138  A    between atoms: _364  and  _365
REMARK  139  A    between atoms: _368  and  _370
REMARK  140  A    between atoms: _370  and  _371
REMARK  141  A    between atoms: _374  and  _376
REMARK  142  A    between atoms: _376  and  _377
REMARK  143  A    between atoms: _376  and  _379
REMARK  144  A    between atoms: _379  and  _380
REMARK  145  A    between atoms: _382  and  _384
REMARK  146  A    between atoms: _384  and  _385
REMARK  147  A    between atoms: _384  and  _387
REMARK  148  A    between atoms: _387  and  _388
REMARK  149  A    between atoms: _393  and  _395
REMARK  150  A    between atoms: _395  and  _396
REMARK  151  A    between atoms: _398  and  _400
REMARK  152  A    between atoms: _400  and  _401
REMARK  153  A    between atoms: _400  and  _403
REMARK  154  A    between atoms: _403  and  _404
REMARK  155  A    between atoms: _407  and  _409
REMARK  156  A    between atoms: _409  and  _410
REMARK  157  A    between atoms: _413  and  _415
REMARK  158  A    between atoms: _415  and  _416
REMARK  159  A    between atoms: _415  and  _418
REMARK  160  A    between atoms: _421  and  _423
REMARK  161  A    between atoms: _423  and  _424
REMARK  162  A    between atoms: _423  and  _426
REMARK  163  A    between atoms: _426  and  _427
REMARK  164  A    between atoms: _430  and  _432
REMARK  165  A    between atoms: _432  and  _433
REMARK  166  A    between atoms: _436  and  _438
REMARK  167  A    between atoms: _438  and  _439
REMARK  168  A    between atoms: _438  and  _441
REMARK  169  A    between atoms: _441  and  _442
REMARK  170  A    between atoms: _444  and  _446
REMARK  171  A    between atoms: _446  and  _447
REMARK  172  A    between atoms: _446  and  _449
REMARK  173  A    between atoms: _449  and  _450
REMARK  174  A    between atoms: _453  and  _455
REMARK  175  A    between atoms: _455  and  _456
REMARK  176  A    between atoms: _455  and  _458
REMARK  177  A    between atoms: _458  and  _459
REMARK  178  A    between atoms: _462  and  _464
REMARK  179  A    between atoms: _464  and  _465
REMARK  180  A    between atoms: _464  and  _467
REMARK  181  A    between atoms: _467  and  _468
REMARK  182  A    between atoms: _472  and  _473
REMARK  183  A    between atoms: _479  and  _480
REMARK  184  A    between atoms: _485  and  _487
REMARK  185  A    between atoms: _487  and  _488
REMARK  186  A    between atoms: _487  and  _490
REMARK  187  A    between atoms: _492  and  _494
REMARK  188  A    between atoms: _494  and  _495
REMARK  189  A    between atoms: _494  and  _497
REMARK  190  A    between atoms: _497  and  _498
REMARK  191  A    between atoms: _503  and  _505
REMARK  192  A    between atoms: _505  and  _506
REMARK  193  A    between atoms: _505  and  _508
REMARK  194  A    between atoms: _508  and  _509
REMARK  195  A    between atoms: _512  and  _514
REMARK  196  A    between atoms: _514  and  _515
REMARK  197  A    between atoms: _514  and  _517
REMARK  198  A    between atoms: _520  and  _522
REMARK  199  A    between atoms: _522  and  _523
REMARK  200  A    between atoms: _522  and  _525
REMARK  201  A    between atoms: _525  and  _526
REMARK  202  A    between atoms: _529  and  _531
REMARK  203  A    between atoms: _531  and  _532
REMARK  204  A    between atoms: _531  and  _534
REMARK  205  A    between atoms: _534  and  _535
REMARK  206  A    between atoms: _545  and  _547
REMARK  207  A    between atoms: _547  and  _548
REMARK  208  A    between atoms: _547  and  _550
REMARK  209  A    between atoms: _550  and  _551
REMARK  210  A    between atoms: _551  and  _552
REMARK  211  A    between atoms: _554  and  _556
REMARK  212  A    between atoms: _556  and  _557
REMARK  213  A    between atoms: _556  and  _559
REMARK  214  A    between atoms: _559  and  _560
REMARK  215  A    between atoms: _565  and  _567
REMARK  216  A    between atoms: _567  and  _568
REMARK  217  A    between atoms: _567  and  _570
REMARK  218  A    between atoms: _570  and  _571
REMARK  219  A    between atoms: _571  and  _572
REMARK  220  A    between atoms: _572  and  _573
REMARK                            x       y       z     vdW  Elec       q    Type
REMARK                         _______ _______ _______ _____ _____    ______ ____
ROOT
ATOM      1  O   HOH     1      30.644  14.762   4.506  0.00  0.00    +0.000 OA
ENDROOT
TORSDOF 0
REMARK  Name = ../refined-set-2016/4qj0/4qj0_pocket.pdb
REMARK  220 active torsions:
REMARK  status: ('A' for Active; 'I' for Inactive)
REMARK    1  A    between atoms: _1  and  _5
REMARK    2  A    between atoms: _5  and  _6
REMARK    3  A    between atoms: _5  and  _8
REMARK    4  A    between atoms: _8  and  _9
REMARK    5  A    between atoms: _9  and  _10
REMARK    6  A    between atoms: _10  and  _11
REMARK    7  A    between atoms: _11  and  _12
REMARK    8  A    between atoms: _16  and  _18
REMARK    9  A    between atoms: _18  and  _19
REMARK   10  A    between atoms: _18  and  _21
REMARK   11  A    between atoms: _21  and  _22
REMARK   12  A    between atoms: _32  and  _34
REMARK   13  A    between atoms: _34  and  _35
REMARK   14  A    between atoms: _34  and  _37
REMARK   15  A    between atoms: _37  and  _38
REMARK   16  A    between atoms: _43  and  _44
REMARK   17  A    between atoms: _46  and  _48
REMARK   18  A    between atoms: _48  and  _49
REMARK   19  A    between atoms: _48  and  _51
REMARK   20  A    between atoms: _51  and  _52
REMARK   21  A    between atoms: _57  and  _58
REMARK   22  A    between atoms: _60  and  _62
REMARK   23  A    between atoms: _62  and  _63
REMARK   24  A    between atoms: _62  and  _65
REMARK   25  A    between atoms: _65  and  _66
REMARK   26  A    between atoms: _69  and  _70
REMARK   27  A    between atoms: _75  and  _77
REMARK   28  A    between atoms: _77  and  _78
REMARK   29  A    between atoms: _77  and  _80
REMARK   30  A    between atoms: _80  and  _81
REMARK   31  A    between atoms: _84  and  _86
REMARK   32  A    between atoms: _86  and  _87
REMARK   33  A    between atoms: _86  and  _89
REMARK   34  A    between atoms: _89  and  _90
REMARK   35  A    between atoms: _95  and  _97
REMARK   36  A    between atoms: _97  and  _98
REMARK   37  A    between atoms: _100  and  _102
REMARK   38  A    between atoms: _102  and  _103
REMARK   39  A    between atoms: _102  and  _105
REMARK   40  A    between atoms: _105  and  _106
REMARK   41  A    between atoms: _111  and  _113
REMARK   42  A    between atoms: _113  and  _114
REMARK   43  A    between atoms: _113  and  _116
REMARK   44  A    between atoms: _116  and  _117
REMARK   45  A    between atoms: _119  and  _121
REMARK   46  A    between atoms: _121  and  _122
REMARK   47  A    between atoms: _121  and  _124
REMARK   48  A    between atoms: _127  and  _129
REMARK   49  A    between atoms: _129  and  _130
REMARK   50  A    between atoms: _129  and  _132
REMARK   51  A    between atoms: _132  and  _133
REMARK   52  A    between atoms: _133  and  _134
REMARK   53  A    between atoms: _134  and  _135
REMARK   54  A    between atoms: _135  and  _136
REMARK   55  A    between atoms: _140  and  _142
REMARK   56  A    between atoms: _142  and  _143
REMARK   57  A    between atoms: _142  and  _145
REMARK   58  A    between atoms: _145  and  _146
REMARK   59  A    between atoms: _149  and  _151
REMARK   60  A    between atoms: _151  and  _152
REMARK   61  A    between atoms: _151  and  _154
REMARK   62  A    between atoms: _154  and  _155
REMARK   63  A    between atoms: _160  and  _162
REMARK   64  A    between atoms: _162  and  _163
REMARK   65  A    between atoms: _166  and  _168
REMARK   66  A    between atoms: _168  and  _169
REMARK   67  A    between atoms: _168  and  _171
REMARK   68  A    between atoms: _171  and  _172
REMARK   69  A    between atoms: _175  and  _177
REMARK   70  A    between atoms: _177  and  _178
REMARK   71  A    between atoms: _177  and  _180
REMARK   72  A    between atoms: _180  and  _181
REMARK   73  A    between atoms: _181  and  _182
REMARK   74  A    between atoms: _187  and  _189
REMARK   75  A    between atoms: _189  and  _190
REMARK   76  A    between atoms: _189  and  _192
REMARK   77  A    between atoms: _192  and  _193
REMARK   78  A    between atoms: _196  and  _198
REMARK   79  A    between atoms: _209  and  _212
REMARK   80  A    between atoms: _212  and  _213
REMARK   81  A    between atoms: _218  and  _219
REMARK   82  A    between atoms: _227  and  _229
REMARK   83  A    between atoms: _229  and  _230
REMARK   84  A    between atoms: _229  and  _232
REMARK   85  A    between atoms: _232  and  _233
REMARK   86  A    between atoms: _243  and  _245
REMARK   87  A    between atoms: _245  and  _246
REMARK   88  A    between atoms: _245  and  _248
REMARK   89  A    between atoms: _248  and  _249
REMARK   90  A    between atoms: _249  and  _250
REMARK   91  A    between atoms: _253  and  _255
REMARK   92  A    between atoms: _255  and  _256
REMARK   93  A    between atoms: _255  and  _258
REMARK   94  A    between atoms: _258  and  _259
REMARK   95  A    between atoms: _264  and  _266
REMARK   96  A    between atoms: _266  and  _267
REMARK   97  A    between atoms: _266  and  _269
REMARK   98  A    between atoms: _269  and  _270
REMARK   99  A    between atoms: _270  and  _271
REMARK  100  A    between atoms: _274  and  _276
REMARK  101  A    between atoms: _276  and  _277
REMARK  102  A    between atoms: _276  and  _279
REMARK  103  A    between atoms: _279  and  _280
REMARK  104  A    between atoms: _283  and  _285
REMARK  105  A    between atoms: _285  and  _286
REMARK  106  A    between atoms: _285  and  _288
REMARK  107  A    between atoms: _288  and  _289
REMARK  108  A    between atoms: _290  and  ZN_582
REMARK  109  A    between atoms: _294  and  _296
REMARK  110  A    between atoms: _296  and  _297
REMARK  111  A    between atoms: _296  and  _299
REMARK  112  A    between atoms: _299  and  _300
REMARK  113  A    between atoms: _303  and  _305
REMARK  114  A    between atoms: _305  and  _306
REMARK  115  A    between atoms: _305  and  _308
REMARK  116  A    between atoms: _311  and  _313
REMARK  117  A    between atoms: _313  and  _314
REMARK  118  A    between atoms: _313  and  _316
REMARK  119  A    between atoms: _316  and  _317
REMARK  120  A    between atoms: _322  and  _324
REMARK  121  A    between atoms: _324  and  _325
REMARK  122  A    between atoms: _324  and  _327
REMARK  123  A    between atoms: _327  and  _328
REMARK  124  A    between atoms: _333  and  _334
REMARK  125  A    between atoms: _336  and  _338
REMARK  126  A    between atoms: _338  and  _339
REMARK  127  A    between atoms: _338  and  _341
REMARK  128  A    between atoms: _341  and  _342
REMARK  129  A    between atoms: _345  and  _347
REMARK  130  A    between atoms: _347  and  _348
REMARK  131  A    between atoms: _351  and  _353
REMARK  132  A    between atoms: _353  and  _354
REMARK  133  A    between atoms: _353  and  _356
REMARK  134  A    between atoms: _356  and  _357
REMARK  135  A    between atoms: _359  and  _361
REMARK  136  A    between atoms: _361  and  _362
REMARK  137  A    between atoms: _361  and  _364
REMARK  138  A    between atoms: _364  and  _365
REMARK  139  A    between atoms: _368  and  _370
REMARK  140  A    between atoms: _370  and  _371
REMARK  141  A    between atoms: _374  and  _376
REMARK  142  A    between atoms: _376  and  _377
REMARK  143  A    between atoms: _376  and  _379
REMARK  144  A    between atoms: _379  and  _380
REMARK  145  A    between atoms: _382  and  _384
REMARK  146  A    between atoms: _384  and  _385
REMARK  147  A    between atoms: _384  and  _387
REMARK  148  A    between atoms: _387  and  _388
REMARK  149  A    between atoms: _393  and  _395
REMARK  150  A    between atoms: _395  and  _396
REMARK  151  A    between atoms: _398  and  _400
REMARK  152  A    between atoms: _400  and  _401
REMARK  153  A    between atoms: _400  and  _403
REMARK  154  A    between atoms: _403  and  _404
REMARK  155  A    between atoms: _407  and  _409
REMARK  156  A    between atoms: _409  and  _410
REMARK  157  A    between atoms: _413  and  _415
REMARK  158  A    between atoms: _415  and  _416
REMARK  159  A    between atoms: _415  and  _418
REMARK  160  A    between atoms: _421  and  _423
REMARK  161  A    between atoms: _423  and  _424
REMARK  162  A    between atoms: _423  and  _426
REMARK  163  A    between atoms: _426  and  _427
REMARK  164  A    between atoms: _430  and  _432
REMARK  165  A    between atoms: _432  and  _433
REMARK  166  A    between atoms: _436  and  _438
REMARK  167  A    between atoms: _438  and  _439
REMARK  168  A    between atoms: _438  and  _441
REMARK  169  A    between atoms: _441  and  _442
REMARK  170  A    between atoms: _444  and  _446
REMARK  171  A    between atoms: _446  and  _447
REMARK  172  A    between atoms: _446  and  _449
REMARK  173  A    between atoms: _449  and  _450
REMARK  174  A    between atoms: _453  and  _455
REMARK  175  A    between atoms: _455  and  _456
REMARK  176  A    between atoms: _455  and  _458
REMARK  177  A    between atoms: _458  and  _459
REMARK  178  A    between atoms: _462  and  _464
REMARK  179  A    between atoms: _464  and  _465
REMARK  180  A    between atoms: _464  and  _467
REMARK  181  A    between atoms: _467  and  _468
REMARK  182  A    between atoms: _472  and  _473
REMARK  183  A    between atoms: _479  and  _480
REMARK  184  A    between atoms: _485  and  _487
REMARK  185  A    between atoms: _487  and  _488
REMARK  186  A    between atoms: _487  and  _490
REMARK  187  A    between atoms: _492  and  _494
REMARK  188  A    between atoms: _494  and  _495
REMARK  189  A    between atoms: _494  and  _497
REMARK  190  A    between atoms: _497  and  _498
REMARK  191  A    between atoms: _503  and  _505
REMARK  192  A    between atoms: _505  and  _506
REMARK  193  A    between atoms: _505  and  _508
REMARK  194  A    between atoms: _508  and  _509
REMARK  195  A    between atoms: _512  and  _514
REMARK  196  A    between atoms: _514  and  _515
REMARK  197  A    between atoms: _514  and  _517
REMARK  198  A    between atoms: _520  and  _522
REMARK  199  A    between atoms: _522  and  _523
REMARK  200  A    between atoms: _522  and  _525
REMARK  201  A    between atoms: _525  and  _526
REMARK  202  A    between atoms: _529  and  _531
REMARK  203  A    between atoms: _531  and  _532
REMARK  204  A    between atoms: _531  and  _534
REMARK  205  A    between atoms: _534  and  _535
REMARK  206  A    between atoms: _545  and  _547
REMARK  207  A    between atoms: _547  and  _548
REMARK  208  A    between atoms: _547  and  _550
REMARK  209  A    between atoms: _550  and  _551
REMARK  210  A    between atoms: _551  and  _552
REMARK  211  A    between atoms: _554  and  _556
REMARK  212  A    between atoms: _556  and  _557
REMARK  213  A    between atoms: _556  and  _559
REMARK  214  A    between atoms: _559  and  _560
REMARK  215  A    between atoms: _565  and  _567
REMARK  216  A    between atoms: _567  and  _568
REMARK  217  A    between atoms: _567  and  _570
REMARK  218  A    between atoms: _570  and  _571
REMARK  219  A    between atoms: _571  and  _572
REMARK  220  A    between atoms: _572  and  _573
REMARK                            x       y       z     vdW  Elec       q    Type
REMARK                         _______ _______ _______ _____ _____    ______ ____
ROOT
ATOM      1  O   HOH     1      23.086  15.479  12.963  0.00  0.00    +0.000 OA
ENDROOT
TORSDOF 0
REMARK  Name = ../refined-set-2016/4qj0/4qj0_pocket.pdb
REMARK  220 active torsions:
REMARK  status: ('A' for Active; 'I' for Inactive)
REMARK    1  A    between atoms: _1  and  _5
REMARK    2  A    between atoms: _5  and  _6
REMARK    3  A    between atoms: _5  and  _8
REMARK    4  A    between atoms: _8  and  _9
REMARK    5  A    between atoms: _9  and  _10
REMARK    6  A    between atoms: _10  and  _11
REMARK    7  A    between atoms: _11  and  _12
REMARK    8  A    between atoms: _16  and  _18
REMARK    9  A    between atoms: _18  and  _19
REMARK   10  A    between atoms: _18  and  _21
REMARK   11  A    between atoms: _21  and  _22
REMARK   12  A    between atoms: _32  and  _34
REMARK   13  A    between atoms: _34  and  _35
REMARK   14  A    between atoms: _34  and  _37
REMARK   15  A    between atoms: _37  and  _38
REMARK   16  A    between atoms: _43  and  _44
REMARK   17  A    between atoms: _46  and  _48
REMARK   18  A    between atoms: _48  and  _49
REMARK   19  A    between atoms: _48  and  _51
REMARK   20  A    between atoms: _51  and  _52
REMARK   21  A    between atoms: _57  and  _58
REMARK   22  A    between atoms: _60  and  _62
REMARK   23  A    between atoms: _62  and  _63
REMARK   24  A    between atoms: _62  and  _65
REMARK   25  A    between atoms: _65  and  _66
REMARK   26  A    between atoms: _69  and  _70
REMARK   27  A    between atoms: _75  and  _77
REMARK   28  A    between atoms: _77  and  _78
REMARK   29  A    between atoms: _77  and  _80
REMARK   30  A    between atoms: _80  and  _81
REMARK   31  A    between atoms: _84  and  _86
REMARK   32  A    between atoms: _86  and  _87
REMARK   33  A    between atoms: _86  and  _89
REMARK   34  A    between atoms: _89  and  _90
REMARK   35  A    between atoms: _95  and  _97
REMARK   36  A    between atoms: _97  and  _98
REMARK   37  A    between atoms: _100  and  _102
REMARK   38  A    between atoms: _102  and  _103
REMARK   39  A    between atoms: _102  and  _105
REMARK   40  A    between atoms: _105  and  _106
REMARK   41  A    between atoms: _111  and  _113
REMARK   42  A    between atoms: _113  and  _114
REMARK   43  A    between atoms: _113  and  _116
REMARK   44  A    between atoms: _116  and  _117
REMARK   45  A    between atoms: _119  and  _121
REMARK   46  A    between atoms: _121  and  _122
REMARK   47  A    between atoms: _121  and  _124
REMARK   48  A    between atoms: _127  and  _129
REMARK   49  A    between atoms: _129  and  _130
REMARK   50  A    between atoms: _129  and  _132
REMARK   51  A    between atoms: _132  and  _133
REMARK   52  A    between atoms: _133  and  _134
REMARK   53  A    between atoms: _134  and  _135
REMARK   54  A    between atoms: _135  and  _136
REMARK   55  A    between atoms: _140  and  _142
REMARK   56  A    between atoms: _142  and  _143
REMARK   57  A    between atoms: _142  and  _145
REMARK   58  A    between atoms: _145  and  _146
REMARK   59  A    between atoms: _149  and  _151
REMARK   60  A    between atoms: _151  and  _152
REMARK   61  A    between atoms: _151  and  _154
REMARK   62  A    between atoms: _154  and  _155
REMARK   63  A    between atoms: _160  and  _162
REMARK   64  A    between atoms: _162  and  _163
REMARK   65  A    between atoms: _166  and  _168
REMARK   66  A    between atoms: _168  and  _169
REMARK   67  A    between atoms: _168  and  _171
REMARK   68  A    between atoms: _171  and  _172
REMARK   69  A    between atoms: _175  and  _177
REMARK   70  A    between atoms: _177  and  _178
REMARK   71  A    between atoms: _177  and  _180
REMARK   72  A    between atoms: _180  and  _181
REMARK   73  A    between atoms: _181  and  _182
REMARK   74  A    between atoms: _187  and  _189
REMARK   75  A    between atoms: _189  and  _190
REMARK   76  A    between atoms: _189  and  _192
REMARK   77  A    between atoms: _192  and  _193
REMARK   78  A    between atoms: _196  and  _198
REMARK   79  A    between atoms: _209  and  _212
REMARK   80  A    between atoms: _212  and  _213
REMARK   81  A    between atoms: _218  and  _219
REMARK   82  A    between atoms: _227  and  _229
REMARK   83  A    between atoms: _229  and  _230
REMARK   84  A    between atoms: _229  and  _232
REMARK   85  A    between atoms: _232  and  _233
REMARK   86  A    between atoms: _243  and  _245
REMARK   87  A    between atoms: _245  and  _246
REMARK   88  A    between atoms: _245  and  _248
REMARK   89  A    between atoms: _248  and  _249
REMARK   90  A    between atoms: _249  and  _250
REMARK   91  A    between atoms: _253  and  _255
REMARK   92  A    between atoms: _255  and  _256
REMARK   93  A    between atoms: _255  and  _258
REMARK   94  A    between atoms: _258  and  _259
REMARK   95  A    between atoms: _264  and  _266
REMARK   96  A    between atoms: _266  and  _267
REMARK   97  A    between atoms: _266  and  _269
REMARK   98  A    between atoms: _269  and  _270
REMARK   99  A    between atoms: _270  and  _271
REMARK  100  A    between atoms: _274  and  _276
REMARK  101  A    between atoms: _276  and  _277
REMARK  102  A    between atoms: _276  and  _279
REMARK  103  A    between atoms: _279  and  _280
REMARK  104  A    between atoms: _283  and  _285
REMARK  105  A    between atoms: _285  and  _286
REMARK  106  A    between atoms: _285  and  _288
REMARK  107  A    between atoms: _288  and  _289
REMARK  108  A    between atoms: _290  and  ZN_582
REMARK  109  A    between atoms: _294  and  _296
REMARK  110  A    between atoms: _296  and  _297
REMARK  111  A    between atoms: _296  and  _299
REMARK  112  A    between atoms: _299  and  _300
REMARK  113  A    between atoms: _303  and  _305
REMARK  114  A    between atoms: _305  and  _306
REMARK  115  A    between atoms: _305  and  _308
REMARK  116  A    between atoms: _311  and  _313
REMARK  117  A    between atoms: _313  and  _314
REMARK  118  A    between atoms: _313  and  _316
REMARK  119  A    between atoms: _316  and  _317
REMARK  120  A    between atoms: _322  and  _324
REMARK  121  A    between atoms: _324  and  _325
REMARK  122  A    between atoms: _324  and  _327
REMARK  123  A    between atoms: _327  and  _328
REMARK  124  A    between atoms: _333  and  _334
REMARK  125  A    between atoms: _336  and  _338
REMARK  126  A    between atoms: _338  and  _339
REMARK  127  A    between atoms: _338  and  _341
REMARK  128  A    between atoms: _341  and  _342
REMARK  129  A    between atoms: _345  and  _347
REMARK  130  A    between atoms: _347  and  _348
REMARK  131  A    between atoms: _351  and  _353
REMARK  132  A    between atoms: _353  and  _354
REMARK  133  A    between atoms: _353  and  _356
REMARK  134  A    between atoms: _356  and  _357
REMARK  135  A    between atoms: _359  and  _361
REMARK  136  A    between atoms: _361  and  _362
REMARK  137  A    between atoms: _361  and  _364
REMARK  138  A    between atoms: _364  and  _365
REMARK  139  A    between atoms: _368  and  _370
REMARK  140  A    between atoms: _370  and  _371
REMARK  141  A    between atoms: _374  and  _376
REMARK  142  A    between atoms: _376  and  _377
REMARK  143  A    between atoms: _376  and  _379
REMARK  144  A    between atoms: _379  and  _380
REMARK  145  A    between atoms: _382  and  _384
REMARK  146  A    between atoms: _384  and  _385
REMARK  147  A    between atoms: _384  and  _387
REMARK  148  A    between atoms: _387  and  _388
REMARK  149  A    between atoms: _393  and  _395
REMARK  150  A    between atoms: _395  and  _396
REMARK  151  A    between atoms: _398  and  _400
REMARK  152  A    between atoms: _400  and  _401
REMARK  153  A    between atoms: _400  and  _403
REMARK  154  A    between atoms: _403  and  _404
REMARK  155  A    between atoms: _407  and  _409
REMARK  156  A    between atoms: _409  and  _410
REMARK  157  A    between atoms: _413  and  _415
REMARK  158  A    between atoms: _415  and  _416
REMARK  159  A    between atoms: _415  and  _418
REMARK  160  A    between atoms: _421  and  _423
REMARK  161  A    between atoms: _423  and  _424
REMARK  162  A    between atoms: _423  and  _426
REMARK  163  A    between atoms: _426  and  _427
REMARK  164  A    between atoms: _430  and  _432
REMARK  165  A    between atoms: _432  and  _433
REMARK  166  A    between atoms: _436  and  _438
REMARK  167  A    between atoms: _438  and  _439
REMARK  168  A    between atoms: _438  and  _441
REMARK  169  A    between atoms: _441  and  _442
REMARK  170  A    between atoms: _444  and  _446
REMARK  171  A    between atoms: _446  and  _447
REMARK  172  A    between atoms: _446  and  _449
REMARK  173  A    between atoms: _449  and  _450
REMARK  174  A    between atoms: _453  and  _455
REMARK  175  A    between atoms: _455  and  _456
REMARK  176  A    between atoms: _455  and  _458
REMARK  177  A    between atoms: _458  and  _459
REMARK  178  A    between atoms: _462  and  _464
REMARK  179  A    between atoms: _464  and  _465
REMARK  180  A    between atoms: _464  and  _467
REMARK  181  A    between atoms: _467  and  _468
REMARK  182  A    between atoms: _472  and  _473
REMARK  183  A    between atoms: _479  and  _480
REMARK  184  A    between atoms: _485  and  _487
REMARK  185  A    between atoms: _487  and  _488
REMARK  186  A    between atoms: _487  and  _490
REMARK  187  A    between atoms: _492  and  _494
REMARK  188  A    between atoms: _494  and  _495
REMARK  189  A    between atoms: _494  and  _497
REMARK  190  A    between atoms: _497  and  _498
REMARK  191  A    between atoms: _503  and  _505
REMARK  192  A    between atoms: _505  and  _506
REMARK  193  A    between atoms: _505  and  _508
REMARK  194  A    between atoms: _508  and  _509
REMARK  195  A    between atoms: _512  and  _514
REMARK  196  A    between atoms: _514  and  _515
REMARK  197  A    between atoms: _514  and  _517
REMARK  198  A    between atoms: _520  and  _522
REMARK  199  A    between atoms: _522  and  _523
REMARK  200  A    between atoms: _522  and  _525
REMARK  201  A    between atoms: _525  and  _526
REMARK  202  A    between atoms: _529  and  _531
REMARK  203  A    between atoms: _531  and  _532
REMARK  204  A    between atoms: _531  and  _534
REMARK  205  A    between atoms: _534  and  _535
REMARK  206  A    between atoms: _545  and  _547
REMARK  207  A    between atoms: _547  and  _548
REMARK  208  A    between atoms: _547  and  _550
REMARK  209  A    between atoms: _550  and  _551
REMARK  210  A    between atoms: _551  and  _552
REMARK  211  A    between atoms: _554  and  _556
REMARK  212  A    between atoms: _556  and  _557
REMARK  213  A    between atoms: _556  and  _559
REMARK  214  A    between atoms: _559  and  _560
REMARK  215  A    between atoms: _565  and  _567
REMARK  216  A    between atoms: _567  and  _568
REMARK  217  A    between atoms: _567  and  _570
REMARK  218  A    between atoms: _570  and  _571
REMARK  219  A    between atoms: _571  and  _572
REMARK  220  A    between atoms: _572  and  _573
REMARK                            x       y       z     vdW  Elec       q    Type
REMARK                         _______ _______ _______ _____ _____    ______ ____
ROOT
ATOM      1  O   HOH     1      25.781  14.374  10.537  0.00  0.00    +0.000 OA
ENDROOT
TORSDOF 0
REMARK  Name = ../refined-set-2016/4qj0/4qj0_pocket.pdb
REMARK  220 active torsions:
REMARK  status: ('A' for Active; 'I' for Inactive)
REMARK    1  A    between atoms: _1  and  _5
REMARK    2  A    between atoms: _5  and  _6
REMARK    3  A    between atoms: _5  and  _8
REMARK    4  A    between atoms: _8  and  _9
REMARK    5  A    between atoms: _9  and  _10
REMARK    6  A    between atoms: _10  and  _11
REMARK    7  A    between atoms: _11  and  _12
REMARK    8  A    between atoms: _16  and  _18
REMARK    9  A    between atoms: _18  and  _19
REMARK   10  A    between atoms: _18  and  _21
REMARK   11  A    between atoms: _21  and  _22
REMARK   12  A    between atoms: _32  and  _34
REMARK   13  A    between atoms: _34  and  _35
REMARK   14  A    between atoms: _34  and  _37
REMARK   15  A    between atoms: _37  and  _38
REMARK   16  A    between atoms: _43  and  _44
REMARK   17  A    between atoms: _46  and  _48
REMARK   18  A    between atoms: _48  and  _49
REMARK   19  A    between atoms: _48  and  _51
REMARK   20  A    between atoms: _51  and  _52
REMARK   21  A    between atoms: _57  and  _58
REMARK   22  A    between atoms: _60  and  _62
REMARK   23  A    between atoms: _62  and  _63
REMARK   24  A    between atoms: _62  and  _65
REMARK   25  A    between atoms: _65  and  _66
REMARK   26  A    between atoms: _69  and  _70
REMARK   27  A    between atoms: _75  and  _77
REMARK   28  A    between atoms: _77  and  _78
REMARK   29  A    between atoms: _77  and  _80
REMARK   30  A    between atoms: _80  and  _81
REMARK   31  A    between atoms: _84  and  _86
REMARK   32  A    between atoms: _86  and  _87
REMARK   33  A    between atoms: _86  and  _89
REMARK   34  A    between atoms: _89  and  _90
REMARK   35  A    between atoms: _95  and  _97
REMARK   36  A    between atoms: _97  and  _98
REMARK   37  A    between atoms: _100  and  _102
REMARK   38  A    between atoms: _102  and  _103
REMARK   39  A    between atoms: _102  and  _105
REMARK   40  A    between atoms: _105  and  _106
REMARK   41  A    between atoms: _111  and  _113
REMARK   42  A    between atoms: _113  and  _114
REMARK   43  A    between atoms: _113  and  _116
REMARK   44  A    between atoms: _116  and  _117
REMARK   45  A    between atoms: _119  and  _121
REMARK   46  A    between atoms: _121  and  _122
REMARK   47  A    between atoms: _121  and  _124
REMARK   48  A    between atoms: _127  and  _129
REMARK   49  A    between atoms: _129  and  _130
REMARK   50  A    between atoms: _129  and  _132
REMARK   51  A    between atoms: _132  and  _133
REMARK   52  A    between atoms: _133  and  _134
REMARK   53  A    between atoms: _134  and  _135
REMARK   54  A    between atoms: _135  and  _136
REMARK   55  A    between atoms: _140  and  _142
REMARK   56  A    between atoms: _142  and  _143
REMARK   57  A    between atoms: _142  and  _145
REMARK   58  A    between atoms: _145  and  _146
REMARK   59  A    between atoms: _149  and  _151
REMARK   60  A    between atoms: _151  and  _152
REMARK   61  A    between atoms: _151  and  _154
REMARK   62  A    between atoms: _154  and  _155
REMARK   63  A    between atoms: _160  and  _162
REMARK   64  A    between atoms: _162  and  _163
REMARK   65  A    between atoms: _166  and  _168
REMARK   66  A    between atoms: _168  and  _169
REMARK   67  A    between atoms: _168  and  _171
REMARK   68  A    between atoms: _171  and  _172
REMARK   69  A    between atoms: _175  and  _177
REMARK   70  A    between atoms: _177  and  _178
REMARK   71  A    between atoms: _177  and  _180
REMARK   72  A    between atoms: _180  and  _181
REMARK   73  A    between atoms: _181  and  _182
REMARK   74  A    between atoms: _187  and  _189
REMARK   75  A    between atoms: _189  and  _190
REMARK   76  A    between atoms: _189  and  _192
REMARK   77  A    between atoms: _192  and  _193
REMARK   78  A    between atoms: _196  and  _198
REMARK   79  A    between atoms: _209  and  _212
REMARK   80  A    between atoms: _212  and  _213
REMARK   81  A    between atoms: _218  and  _219
REMARK   82  A    between atoms: _227  and  _229
REMARK   83  A    between atoms: _229  and  _230
REMARK   84  A    between atoms: _229  and  _232
REMARK   85  A    between atoms: _232  and  _233
REMARK   86  A    between atoms: _243  and  _245
REMARK   87  A    between atoms: _245  and  _246
REMARK   88  A    between atoms: _245  and  _248
REMARK   89  A    between atoms: _248  and  _249
REMARK   90  A    between atoms: _249  and  _250
REMARK   91  A    between atoms: _253  and  _255
REMARK   92  A    between atoms: _255  and  _256
REMARK   93  A    between atoms: _255  and  _258
REMARK   94  A    between atoms: _258  and  _259
REMARK   95  A    between atoms: _264  and  _266
REMARK   96  A    between atoms: _266  and  _267
REMARK   97  A    between atoms: _266  and  _269
REMARK   98  A    between atoms: _269  and  _270
REMARK   99  A    between atoms: _270  and  _271
REMARK  100  A    between atoms: _274  and  _276
REMARK  101  A    between atoms: _276  and  _277
REMARK  102  A    between atoms: _276  and  _279
REMARK  103  A    between atoms: _279  and  _280
REMARK  104  A    between atoms: _283  and  _285
REMARK  105  A    between atoms: _285  and  _286
REMARK  106  A    between atoms: _285  and  _288
REMARK  107  A    between atoms: _288  and  _289
REMARK  108  A    between atoms: _290  and  ZN_582
REMARK  109  A    between atoms: _294  and  _296
REMARK  110  A    between atoms: _296  and  _297
REMARK  111  A    between atoms: _296  and  _299
REMARK  112  A    between atoms: _299  and  _300
REMARK  113  A    between atoms: _303  and  _305
REMARK  114  A    between atoms: _305  and  _306
REMARK  115  A    between atoms: _305  and  _308
REMARK  116  A    between atoms: _311  and  _313
REMARK  117  A    between atoms: _313  and  _314
REMARK  118  A    between atoms: _313  and  _316
REMARK  119  A    between atoms: _316  and  _317
REMARK  120  A    between atoms: _322  and  _324
REMARK  121  A    between atoms: _324  and  _325
REMARK  122  A    between atoms: _324  and  _327
REMARK  123  A    between atoms: _327  and  _328
REMARK  124  A    between atoms: _333  and  _334
REMARK  125  A    between atoms: _336  and  _338
REMARK  126  A    between atoms: _338  and  _339
REMARK  127  A    between atoms: _338  and  _341
REMARK  128  A    between atoms: _341  and  _342
REMARK  129  A    between atoms: _345  and  _347
REMARK  130  A    between atoms: _347  and  _348
REMARK  131  A    between atoms: _351  and  _353
REMARK  132  A    between atoms: _353  and  _354
REMARK  133  A    between atoms: _353  and  _356
REMARK  134  A    between atoms: _356  and  _357
REMARK  135  A    between atoms: _359  and  _361
REMARK  136  A    between atoms: _361  and  _362
REMARK  137  A    between atoms: _361  and  _364
REMARK  138  A    between atoms: _364  and  _365
REMARK  139  A    between atoms: _368  and  _370
REMARK  140  A    between atoms: _370  and  _371
REMARK  141  A    between atoms: _374  and  _376
REMARK  142  A    between atoms: _376  and  _377
REMARK  143  A    between atoms: _376  and  _379
REMARK  144  A    between atoms: _379  and  _380
REMARK  145  A    between atoms: _382  and  _384
REMARK  146  A    between atoms: _384  and  _385
REMARK  147  A    between atoms: _384  and  _387
REMARK  148  A    between atoms: _387  and  _388
REMARK  149  A    between atoms: _393  and  _395
REMARK  150  A    between atoms: _395  and  _396
REMARK  151  A    between atoms: _398  and  _400
REMARK  152  A    between atoms: _400  and  _401
REMARK  153  A    between atoms: _400  and  _403
REMARK  154  A    between atoms: _403  and  _404
REMARK  155  A    between atoms: _407  and  _409
REMARK  156  A    between atoms: _409  and  _410
REMARK  157  A    between atoms: _413  and  _415
REMARK  158  A    between atoms: _415  and  _416
REMARK  159  A    between atoms: _415  and  _418
REMARK  160  A    between atoms: _421  and  _423
REMARK  161  A    between atoms: _423  and  _424
REMARK  162  A    between atoms: _423  and  _426
REMARK  163  A    between atoms: _426  and  _427
REMARK  164  A    between atoms: _430  and  _432
REMARK  165  A    between atoms: _432  and  _433
REMARK  166  A    between atoms: _436  and  _438
REMARK  167  A    between atoms: _438  and  _439
REMARK  168  A    between atoms: _438  and  _441
REMARK  169  A    between atoms: _441  and  _442
REMARK  170  A    between atoms: _444  and  _446
REMARK  171  A    between atoms: _446  and  _447
REMARK  172  A    between atoms: _446  and  _449
REMARK  173  A    between atoms: _449  and  _450
REMARK  174  A    between atoms: _453  and  _455
REMARK  175  A    between atoms: _455  and  _456
REMARK  176  A    between atoms: _455  and  _458
REMARK  177  A    between atoms: _458  and  _459
REMARK  178  A    between atoms: _462  and  _464
REMARK  179  A    between atoms: _464  and  _465
REMARK  180  A    between atoms: _464  and  _467
REMARK  181  A    between atoms: _467  and  _468
REMARK  182  A    between atoms: _472  and  _473
REMARK  183  A    between atoms: _479  and  _480
REMARK  184  A    between atoms: _485  and  _487
REMARK  185  A    between atoms: _487  and  _488
REMARK  186  A    between atoms: _487  and  _490
REMARK  187  A    between atoms: _492  and  _494
REMARK  188  A    between atoms: _494  and  _495
REMARK  189  A    between atoms: _494  and  _497
REMARK  190  A    between atoms: _497  and  _498
REMARK  191  A    between atoms: _503  and  _505
REMARK  192  A    between atoms: _505  and  _506
REMARK  193  A    between atoms: _505  and  _508
REMARK  194  A    between atoms: _508  and  _509
REMARK  195  A    between atoms: _512  and  _514
REMARK  196  A    between atoms: _514  and  _515
REMARK  197  A    between atoms: _514  and  _517
REMARK  198  A    between atoms: _520  and  _522
REMARK  199  A    between atoms: _522  and  _523
REMARK  200  A    between atoms: _522  and  _525
REMARK  201  A    between atoms: _525  and  _526
REMARK  202  A    between atoms: _529  and  _531
REMARK  203  A    between atoms: _531  and  _532
REMARK  204  A    between atoms: _531  and  _534
REMARK  205  A    between atoms: _534  and  _535
REMARK  206  A    between atoms: _545  and  _547
REMARK  207  A    between atoms: _547  and  _548
REMARK  208  A    between atoms: _547  and  _550
REMARK  209  A    between atoms: _550  and  _551
REMARK  210  A    between atoms: _551  and  _552
REMARK  211  A    between atoms: _554  and  _556
REMARK  212  A    between atoms: _556  and  _557
REMARK  213  A    between atoms: _556  and  _559
REMARK  214  A    between atoms: _559  and  _560
REMARK  215  A    between atoms: _565  and  _567
REMARK  216  A    between atoms: _567  and  _568
REMARK  217  A    between atoms: _567  and  _570
REMARK  218  A    between atoms: _570  and  _571
REMARK  219  A    between atoms: _571  and  _572
REMARK  220  A    between atoms: _572  and  _573
REMARK                            x       y       z     vdW  Elec       q    Type
REMARK                         _______ _______ _______ _____ _____    ______ ____
ROOT
ATOM      1  O   HOH     1      29.242  13.079   8.076  0.00  0.00    +0.000 OA
ENDROOT
TORSDOF 0
