REMARK  Name = ../refined-set-2016/1bma/1bma_pocket.pdb
REMARK  206 active torsions:
REMARK  status: ('A' for Active; 'I' for Inactive)
REMARK    1  A    between atoms: _1  and  _5
REMARK    2  A    between atoms: _5  and  _6
REMARK    3  A    between atoms: _5  and  _8
REMARK    4  A    between atoms: _11  and  _13
REMARK    5  A    between atoms: _13  and  _14
REMARK    6  A    between atoms: _13  and  _16
REMARK    7  A    between atoms: _16  and  _17
REMARK    8  A    between atoms: _20  and  _22
REMARK    9  A    between atoms: _22  and  _23
REMARK   10  A    between atoms: _22  and  _25
REMARK   11  A    between atoms: _25  and  _26
REMARK   12  A    between atoms: _26  and  _61
REMARK   13  A    between atoms: _27  and  _29
REMARK   14  A    between atoms: _29  and  _30
REMARK   15  A    between atoms: _32  and  _34
REMARK   16  A    between atoms: _34  and  _35
REMARK   17  A    between atoms: _38  and  _40
REMARK   18  A    between atoms: _40  and  _41
REMARK   19  A    between atoms: _44  and  _46
REMARK   20  A    between atoms: _46  and  _47
REMARK   21  A    between atoms: _46  and  _49
REMARK   22  A    between atoms: _49  and  _50
REMARK   23  A    between atoms: _55  and  _57
REMARK   24  A    between atoms: _57  and  _58
REMARK   25  A    between atoms: _57  and  _60
REMARK   26  A    between atoms: _60  and  _61
REMARK   27  A    between atoms: _62  and  _64
REMARK   28  A    between atoms: _64  and  _65
REMARK   29  A    between atoms: _64  and  _67
REMARK   30  A    between atoms: _67  and  _68
REMARK   31  A    between atoms: _71  and  _73
REMARK   32  A    between atoms: _73  and  _74
REMARK   33  A    between atoms: _73  and  _76
REMARK   34  A    between atoms: _76  and  _77
REMARK   35  A    between atoms: _87  and  _89
REMARK   36  A    between atoms: _89  and  _90
REMARK   37  A    between atoms: _89  and  _92
REMARK   38  A    between atoms: _92  and  _93
REMARK   39  A    between atoms: _98  and  _100
REMARK   40  A    between atoms: _100  and  _101
REMARK   41  A    between atoms: _100  and  _103
REMARK   42  A    between atoms: _103  and  _104
REMARK   43  A    between atoms: _107  and  _109
REMARK   44  A    between atoms: _109  and  _110
REMARK   45  A    between atoms: _109  and  _112
REMARK   46  A    between atoms: _112  and  _113
REMARK   47  A    between atoms: _116  and  _118
REMARK   48  A    between atoms: _118  and  _119
REMARK   49  A    between atoms: _118  and  _121
REMARK   50  A    between atoms: _121  and  _122
REMARK   51  A    between atoms: _125  and  _127
REMARK   52  A    between atoms: _127  and  _128
REMARK   53  A    between atoms: _127  and  _130
REMARK   54  A    between atoms: _133  and  _135
REMARK   55  A    between atoms: _135  and  _136
REMARK   56  A    between atoms: _139  and  _141
REMARK   57  A    between atoms: _141  and  _142
REMARK   58  A    between atoms: _145  and  _147
REMARK   59  A    between atoms: _147  and  _148
REMARK   60  A    between atoms: _150  and  _152
REMARK   61  A    between atoms: _152  and  _153
REMARK   62  A    between atoms: _152  and  _155
REMARK   63  A    between atoms: _155  and  _156
REMARK   64  A    between atoms: _159  and  _161
REMARK   65  A    between atoms: _161  and  _162
REMARK   66  A    between atoms: _161  and  _164
REMARK   67  A    between atoms: _164  and  _165
REMARK   68  A    between atoms: _168  and  _170
REMARK   69  A    between atoms: _170  and  _171
REMARK   70  A    between atoms: _173  and  _175
REMARK   71  A    between atoms: _175  and  _176
REMARK   72  A    between atoms: _175  and  _178
REMARK   73  A    between atoms: _178  and  _179
REMARK   74  A    between atoms: _182  and  _184
REMARK   75  A    between atoms: _184  and  _185
REMARK   76  A    between atoms: _184  and  _187
REMARK   77  A    between atoms: _187  and  _188
REMARK   78  A    between atoms: _188  and  _189
REMARK   79  A    between atoms: _189  and  _190
REMARK   80  A    between atoms: _199  and  _201
REMARK   81  A    between atoms: _201  and  _202
REMARK   82  A    between atoms: _201  and  _204
REMARK   83  A    between atoms: _204  and  _205
REMARK   84  A    between atoms: _208  and  _210
REMARK   85  A    between atoms: _210  and  _211
REMARK   86  A    between atoms: _210  and  _213
REMARK   87  A    between atoms: _213  and  _214
REMARK   88  A    between atoms: _219  and  _221
REMARK   89  A    between atoms: _221  and  _222
REMARK   90  A    between atoms: _224  and  _226
REMARK   91  A    between atoms: _226  and  _227
REMARK   92  A    between atoms: _226  and  _229
REMARK   93  A    between atoms: _229  and  _230
REMARK   94  A    between atoms: _240  and  _242
REMARK   95  A    between atoms: _242  and  _243
REMARK   96  A    between atoms: _242  and  _245
REMARK   97  A    between atoms: _245  and  _246
REMARK   98  A    between atoms: _248  and  _250
REMARK   99  A    between atoms: _250  and  _251
REMARK  100  A    between atoms: _250  and  _253
REMARK  101  A    between atoms: _253  and  _254
REMARK  102  A    between atoms: _257  and  _259
REMARK  103  A    between atoms: _259  and  _260
REMARK  104  A    between atoms: _259  and  _262
REMARK  105  A    between atoms: _265  and  _267
REMARK  106  A    between atoms: _267  and  _268
REMARK  107  A    between atoms: _267  and  _270
REMARK  108  A    between atoms: _270  and  _271
REMARK  109  A    between atoms: _271  and  _272
REMARK  110  A    between atoms: _272  and  _273
REMARK  111  A    between atoms: _273  and  _274
REMARK  112  A    between atoms: _278  and  _280
REMARK  113  A    between atoms: _280  and  _281
REMARK  114  A    between atoms: _280  and  _283
REMARK  115  A    between atoms: _283  and  _284
REMARK  116  A    between atoms: _284  and  _285
REMARK  117  A    between atoms: _287  and  _289
REMARK  118  A    between atoms: _289  and  _290
REMARK  119  A    between atoms: _289  and  _292
REMARK  120  A    between atoms: _292  and  _293
REMARK  121  A    between atoms: _295  and  _297
REMARK  122  A    between atoms: _297  and  _298
REMARK  123  A    between atoms: _300  and  _302
REMARK  124  A    between atoms: _302  and  _303
REMARK  125  A    between atoms: _302  and  _305
REMARK  126  A    between atoms: _305  and  _306
REMARK  127  A    between atoms: _306  and  _441
REMARK  128  A    between atoms: _307  and  _309
REMARK  129  A    between atoms: _309  and  _310
REMARK  130  A    between atoms: _309  and  _312
REMARK  131  A    between atoms: _312  and  _313
REMARK  132  A    between atoms: _313  and  _314
REMARK  133  A    between atoms: _319  and  _321
REMARK  134  A    between atoms: _321  and  _322
REMARK  135  A    between atoms: _324  and  _326
REMARK  136  A    between atoms: _326  and  _327
REMARK  137  A    between atoms: _326  and  _329
REMARK  138  A    between atoms: _329  and  _330
REMARK  139  A    between atoms: _333  and  _335
REMARK  140  A    between atoms: _335  and  _336
REMARK  141  A    between atoms: _335  and  _338
REMARK  142  A    between atoms: _338  and  _339
REMARK  143  A    between atoms: _341  and  _343
REMARK  144  A    between atoms: _343  and  _344
REMARK  145  A    between atoms: _346  and  _348
REMARK  146  A    between atoms: _348  and  _349
REMARK  147  A    between atoms: _351  and  _353
REMARK  148  A    between atoms: _353  and  _354
REMARK  149  A    between atoms: _353  and  _356
REMARK  150  A    between atoms: _359  and  _361
REMARK  151  A    between atoms: _361  and  _362
REMARK  152  A    between atoms: _361  and  _364
REMARK  153  A    between atoms: _364  and  _365
REMARK  154  A    between atoms: _368  and  _370
REMARK  155  A    between atoms: _370  and  _371
REMARK  156  A    between atoms: _370  and  _373
REMARK  157  A    between atoms: _373  and  _374
REMARK  158  A    between atoms: _376  and  _378
REMARK  159  A    between atoms: _378  and  _379
REMARK  160  A    between atoms: _378  and  _381
REMARK  161  A    between atoms: _381  and  _382
REMARK  162  A    between atoms: _388  and  _390
REMARK  163  A    between atoms: _390  and  _391
REMARK  164  A    between atoms: _390  and  _393
REMARK  165  A    between atoms: _396  and  _398
REMARK  166  A    between atoms: _398  and  _399
REMARK  167  A    between atoms: _398  and  _401
REMARK  168  A    between atoms: _401  and  _402
REMARK  169  A    between atoms: _404  and  _406
REMARK  170  A    between atoms: _406  and  _407
REMARK  171  A    between atoms: _406  and  _409
REMARK  172  A    between atoms: _409  and  _410
REMARK  173  A    between atoms: _410  and  _411
REMARK  174  A    between atoms: _411  and  _412
REMARK  175  A    between atoms: _421  and  _423
REMARK  176  A    between atoms: _423  and  _424
REMARK  177  A    between atoms: _423  and  _426
REMARK  178  A    between atoms: _426  and  _427
REMARK  179  A    between atoms: _430  and  _432
REMARK  180  A    between atoms: _432  and  _433
REMARK  181  A    between atoms: _435  and  _437
REMARK  182  A    between atoms: _437  and  _438
REMARK  183  A    between atoms: _437  and  _440
REMARK  184  A    between atoms: _440  and  _441
REMARK  185  A    between atoms: _442  and  _444
REMARK  186  A    between atoms: _444  and  _445
REMARK  187  A    between atoms: _444  and  _447
REMARK  188  A    between atoms: _447  and  _448
REMARK  189  A    between atoms: _453  and  _455
REMARK  190  A    between atoms: _455  and  _456
REMARK  191  A    between atoms: _455  and  _458
REMARK  192  A    between atoms: _461  and  _463
REMARK  193  A    between atoms: _463  and  _464
REMARK  194  A    between atoms: _463  and  _466
REMARK  195  A    between atoms: _466  and  _467
REMARK  196  A    between atoms: _470  and  _472
REMARK  197  A    between atoms: _472  and  _473
REMARK  198  A    between atoms: _472  and  _475
REMARK  199  A    between atoms: _478  and  _480
REMARK  200  A    between atoms: _480  and  _481
REMARK  201  A    between atoms: _480  and  _483
REMARK  202  A    between atoms: _483  and  _484
REMARK  203  A    between atoms: _490  and  _492
REMARK  204  A    between atoms: _492  and  _493
REMARK  205  A    between atoms: _492  and  _495
REMARK  206  A    between atoms: _495  and  _496
REMARK                            x       y       z     vdW  Elec       q    Type
REMARK                         _______ _______ _______ _____ _____    ______ ____
ROOT
ATOM      1  CA  VAL A   1      40.667  33.462  36.045  0.00  0.00    +0.001 C 
ENDROOT
BRANCH   1   2
ATOM      2  N   VAL A   1      41.593  32.726  35.179  0.00  0.00    +0.387 N 
ATOM      3  H1  VAL A   1      42.372  32.343  35.752  0.00  0.00    -0.089 HD
ATOM      4  H2  VAL A   1      41.086  31.945  34.715  0.00  0.00    -0.089 HD
ATOM      5  H3  VAL A   1      41.976  33.369  34.457  0.00  0.00    -0.089 HD
ENDBRANCH   1   2
BRANCH   1   6
ATOM      6  CB  VAL A   1      41.446  34.646  36.763  0.00  0.00    -0.013 C 
ATOM      7  CG2 VAL A   1      42.485  34.116  37.761  0.00  0.00    -0.002 C 
ATOM      8  CG1 VAL A   1      40.479  35.497  37.575  0.00  0.00    -0.002 C 
ENDBRANCH   1   6
BRANCH   1   9
ATOM      9  C   VAL A   1      39.544  34.005  35.167  0.00  0.00    +0.185 C 
ATOM     10  O   VAL A   1      39.830  34.764  34.220  0.00  0.00    -0.291 OA
ENDBRANCH   1   9
TORSDOF 3
REMARK  Name = ../refined-set-2016/1bma/1bma_pocket.pdb
REMARK  206 active torsions:
REMARK  status: ('A' for Active; 'I' for Inactive)
REMARK    1  A    between atoms: _1  and  _5
REMARK    2  A    between atoms: _5  and  _6
REMARK    3  A    between atoms: _5  and  _8
REMARK    4  A    between atoms: _11  and  _13
REMARK    5  A    between atoms: _13  and  _14
REMARK    6  A    between atoms: _13  and  _16
REMARK    7  A    between atoms: _16  and  _17
REMARK    8  A    between atoms: _20  and  _22
REMARK    9  A    between atoms: _22  and  _23
REMARK   10  A    between atoms: _22  and  _25
REMARK   11  A    between atoms: _25  and  _26
REMARK   12  A    between atoms: _26  and  _61
REMARK   13  A    between atoms: _27  and  _29
REMARK   14  A    between atoms: _29  and  _30
REMARK   15  A    between atoms: _32  and  _34
REMARK   16  A    between atoms: _34  and  _35
REMARK   17  A    between atoms: _38  and  _40
REMARK   18  A    between atoms: _40  and  _41
REMARK   19  A    between atoms: _44  and  _46
REMARK   20  A    between atoms: _46  and  _47
REMARK   21  A    between atoms: _46  and  _49
REMARK   22  A    between atoms: _49  and  _50
REMARK   23  A    between atoms: _55  and  _57
REMARK   24  A    between atoms: _57  and  _58
REMARK   25  A    between atoms: _57  and  _60
REMARK   26  A    between atoms: _60  and  _61
REMARK   27  A    between atoms: _62  and  _64
REMARK   28  A    between atoms: _64  and  _65
REMARK   29  A    between atoms: _64  and  _67
REMARK   30  A    between atoms: _67  and  _68
REMARK   31  A    between atoms: _71  and  _73
REMARK   32  A    between atoms: _73  and  _74
REMARK   33  A    between atoms: _73  and  _76
REMARK   34  A    between atoms: _76  and  _77
REMARK   35  A    between atoms: _87  and  _89
REMARK   36  A    between atoms: _89  and  _90
REMARK   37  A    between atoms: _89  and  _92
REMARK   38  A    between atoms: _92  and  _93
REMARK   39  A    between atoms: _98  and  _100
REMARK   40  A    between atoms: _100  and  _101
REMARK   41  A    between atoms: _100  and  _103
REMARK   42  A    between atoms: _103  and  _104
REMARK   43  A    between atoms: _107  and  _109
REMARK   44  A    between atoms: _109  and  _110
REMARK   45  A    between atoms: _109  and  _112
REMARK   46  A    between atoms: _112  and  _113
REMARK   47  A    between atoms: _116  and  _118
REMARK   48  A    between atoms: _118  and  _119
REMARK   49  A    between atoms: _118  and  _121
REMARK   50  A    between atoms: _121  and  _122
REMARK   51  A    between atoms: _125  and  _127
REMARK   52  A    between atoms: _127  and  _128
REMARK   53  A    between atoms: _127  and  _130
REMARK   54  A    between atoms: _133  and  _135
REMARK   55  A    between atoms: _135  and  _136
REMARK   56  A    between atoms: _139  and  _141
REMARK   57  A    between atoms: _141  and  _142
REMARK   58  A    between atoms: _145  and  _147
REMARK   59  A    between atoms: _147  and  _148
REMARK   60  A    between atoms: _150  and  _152
REMARK   61  A    between atoms: _152  and  _153
REMARK   62  A    between atoms: _152  and  _155
REMARK   63  A    between atoms: _155  and  _156
REMARK   64  A    between atoms: _159  and  _161
REMARK   65  A    between atoms: _161  and  _162
REMARK   66  A    between atoms: _161  and  _164
REMARK   67  A    between atoms: _164  and  _165
REMARK   68  A    between atoms: _168  and  _170
REMARK   69  A    between atoms: _170  and  _171
REMARK   70  A    between atoms: _173  and  _175
REMARK   71  A    between atoms: _175  and  _176
REMARK   72  A    between atoms: _175  and  _178
REMARK   73  A    between atoms: _178  and  _179
REMARK   74  A    between atoms: _182  and  _184
REMARK   75  A    between atoms: _184  and  _185
REMARK   76  A    between atoms: _184  and  _187
REMARK   77  A    between atoms: _187  and  _188
REMARK   78  A    between atoms: _188  and  _189
REMARK   79  A    between atoms: _189  and  _190
REMARK   80  A    between atoms: _199  and  _201
REMARK   81  A    between atoms: _201  and  _202
REMARK   82  A    between atoms: _201  and  _204
REMARK   83  A    between atoms: _204  and  _205
REMARK   84  A    between atoms: _208  and  _210
REMARK   85  A    between atoms: _210  and  _211
REMARK   86  A    between atoms: _210  and  _213
REMARK   87  A    between atoms: _213  and  _214
REMARK   88  A    between atoms: _219  and  _221
REMARK   89  A    between atoms: _221  and  _222
REMARK   90  A    between atoms: _224  and  _226
REMARK   91  A    between atoms: _226  and  _227
REMARK   92  A    between atoms: _226  and  _229
REMARK   93  A    between atoms: _229  and  _230
REMARK   94  A    between atoms: _240  and  _242
REMARK   95  A    between atoms: _242  and  _243
REMARK   96  A    between atoms: _242  and  _245
REMARK   97  A    between atoms: _245  and  _246
REMARK   98  A    between atoms: _248  and  _250
REMARK   99  A    between atoms: _250  and  _251
REMARK  100  A    between atoms: _250  and  _253
REMARK  101  A    between atoms: _253  and  _254
REMARK  102  A    between atoms: _257  and  _259
REMARK  103  A    between atoms: _259  and  _260
REMARK  104  A    between atoms: _259  and  _262
REMARK  105  A    between atoms: _265  and  _267
REMARK  106  A    between atoms: _267  and  _268
REMARK  107  A    between atoms: _267  and  _270
REMARK  108  A    between atoms: _270  and  _271
REMARK  109  A    between atoms: _271  and  _272
REMARK  110  A    between atoms: _272  and  _273
REMARK  111  A    between atoms: _273  and  _274
REMARK  112  A    between atoms: _278  and  _280
REMARK  113  A    between atoms: _280  and  _281
REMARK  114  A    between atoms: _280  and  _283
REMARK  115  A    between atoms: _283  and  _284
REMARK  116  A    between atoms: _284  and  _285
REMARK  117  A    between atoms: _287  and  _289
REMARK  118  A    between atoms: _289  and  _290
REMARK  119  A    between atoms: _289  and  _292
REMARK  120  A    between atoms: _292  and  _293
REMARK  121  A    between atoms: _295  and  _297
REMARK  122  A    between atoms: _297  and  _298
REMARK  123  A    between atoms: _300  and  _302
REMARK  124  A    between atoms: _302  and  _303
REMARK  125  A    between atoms: _302  and  _305
REMARK  126  A    between atoms: _305  and  _306
REMARK  127  A    between atoms: _306  and  _441
REMARK  128  A    between atoms: _307  and  _309
REMARK  129  A    between atoms: _309  and  _310
REMARK  130  A    between atoms: _309  and  _312
REMARK  131  A    between atoms: _312  and  _313
REMARK  132  A    between atoms: _313  and  _314
REMARK  133  A    between atoms: _319  and  _321
REMARK  134  A    between atoms: _321  and  _322
REMARK  135  A    between atoms: _324  and  _326
REMARK  136  A    between atoms: _326  and  _327
REMARK  137  A    between atoms: _326  and  _329
REMARK  138  A    between atoms: _329  and  _330
REMARK  139  A    between atoms: _333  and  _335
REMARK  140  A    between atoms: _335  and  _336
REMARK  141  A    between atoms: _335  and  _338
REMARK  142  A    between atoms: _338  and  _339
REMARK  143  A    between atoms: _341  and  _343
REMARK  144  A    between atoms: _343  and  _344
REMARK  145  A    between atoms: _346  and  _348
REMARK  146  A    between atoms: _348  and  _349
REMARK  147  A    between atoms: _351  and  _353
REMARK  148  A    between atoms: _353  and  _354
REMARK  149  A    between atoms: _353  and  _356
REMARK  150  A    between atoms: _359  and  _361
REMARK  151  A    between atoms: _361  and  _362
REMARK  152  A    between atoms: _361  and  _364
REMARK  153  A    between atoms: _364  and  _365
REMARK  154  A    between atoms: _368  and  _370
REMARK  155  A    between atoms: _370  and  _371
REMARK  156  A    between atoms: _370  and  _373
REMARK  157  A    between atoms: _373  and  _374
REMARK  158  A    between atoms: _376  and  _378
REMARK  159  A    between atoms: _378  and  _379
REMARK  160  A    between atoms: _378  and  _381
REMARK  161  A    between atoms: _381  and  _382
REMARK  162  A    between atoms: _388  and  _390
REMARK  163  A    between atoms: _390  and  _391
REMARK  164  A    between atoms: _390  and  _393
REMARK  165  A    between atoms: _396  and  _398
REMARK  166  A    between atoms: _398  and  _399
REMARK  167  A    between atoms: _398  and  _401
REMARK  168  A    between atoms: _401  and  _402
REMARK  169  A    between atoms: _404  and  _406
REMARK  170  A    between atoms: _406  and  _407
REMARK  171  A    between atoms: _406  and  _409
REMARK  172  A    between atoms: _409  and  _410
REMARK  173  A    between atoms: _410  and  _411
REMARK  174  A    between atoms: _411  and  _412
REMARK  175  A    between atoms: _421  and  _423
REMARK  176  A    between atoms: _423  and  _424
REMARK  177  A    between atoms: _423  and  _426
REMARK  178  A    between atoms: _426  and  _427
REMARK  179  A    between atoms: _430  and  _432
REMARK  180  A    between atoms: _432  and  _433
REMARK  181  A    between atoms: _435  and  _437
REMARK  182  A    between atoms: _437  and  _438
REMARK  183  A    between atoms: _437  and  _440
REMARK  184  A    between atoms: _440  and  _441
REMARK  185  A    between atoms: _442  and  _444
REMARK  186  A    between atoms: _444  and  _445
REMARK  187  A    between atoms: _444  and  _447
REMARK  188  A    between atoms: _447  and  _448
REMARK  189  A    between atoms: _453  and  _455
REMARK  190  A    between atoms: _455  and  _456
REMARK  191  A    between atoms: _455  and  _458
REMARK  192  A    between atoms: _461  and  _463
REMARK  193  A    between atoms: _463  and  _464
REMARK  194  A    between atoms: _463  and  _466
REMARK  195  A    between atoms: _466  and  _467
REMARK  196  A    between atoms: _470  and  _472
REMARK  197  A    between atoms: _472  and  _473
REMARK  198  A    between atoms: _472  and  _475
REMARK  199  A    between atoms: _478  and  _480
REMARK  200  A    between atoms: _480  and  _481
REMARK  201  A    between atoms: _480  and  _483
REMARK  202  A    between atoms: _483  and  _484
REMARK  203  A    between atoms: _490  and  _492
REMARK  204  A    between atoms: _492  and  _493
REMARK  205  A    between atoms: _492  and  _495
REMARK  206  A    between atoms: _495  and  _496
REMARK                            x       y       z     vdW  Elec       q    Type
REMARK                         _______ _______ _______ _____ _____    ______ ____
ROOT
ATOM      1  CA  CYS A   4      49.713  19.651  38.388  0.00  0.00    +0.149 C 
ENDROOT
BRANCH   1   2
ATOM      2  N   CYS A   4      48.885  18.995  39.406  0.00  0.00    -0.297 N 
ATOM      3  H   CYS A   4      48.889  19.376  40.373  0.00  0.00    +0.150 HD
ATOM      4  C   GLY A   3      48.119  17.919  39.140  0.00  0.00    +0.241 C 
ATOM      5  O   GLY A   3      48.018  17.452  38.006  0.00  0.00    -0.273 OA
BRANCH   4   6
ATOM      6  CA  GLY A   3      47.349  17.225  40.272  0.00  0.00    +0.155 C 
BRANCH   6   7
ATOM      7  N   GLY A   3      47.853  17.606  41.585  0.00  0.00    -0.297 N 
ATOM      8  H   GLY A   3      47.260  18.167  42.230  0.00  0.00    +0.150 HD
ATOM      9  C   ALA A   2      49.083  17.230  41.957  0.00  0.00    +0.241 C 
ATOM     10  O   ALA A   2      49.797  16.613  41.149  0.00  0.00    -0.273 OA
BRANCH   9  11
ATOM     11  CA  ALA A   2      49.627  17.641  43.341  0.00  0.00    +0.149 C 
ATOM     12  CB  ALA A   2      49.212  16.591  44.328  0.00  0.00    +0.031 C 
BRANCH  11  13
ATOM     13  N   ALA A   2      49.157  18.938  43.792  0.00  0.00    -0.297 N 
ATOM     14  H   ALA A   2      48.607  19.003  44.672  0.00  0.00    +0.150 HD
ATOM     15  C   ALA A   1      49.418  20.058  43.095  0.00  0.00    +0.238 C 
ATOM     16  O   ALA A   1      50.202  20.041  42.128  0.00  0.00    -0.274 OA
BRANCH  15  17
ATOM     17  CA  ALA A   1      48.786  21.380  43.583  0.00  0.00    +0.145 C 
ATOM     18  CB  ALA A   1      47.485  21.629  42.817  0.00  0.00    +0.028 C 
BRANCH  17  19
ATOM     19  N   ALA A   1      49.721  22.481  43.359  0.00  0.00    -0.238 NA
ATOM     20  H   ALA A   1      49.664  23.021  42.472  0.00  0.00    +0.142 HD
ENDBRANCH  17  19
ENDBRANCH  15  17
ENDBRANCH  11  13
ENDBRANCH   9  11
ENDBRANCH   6   7
BRANCH   6  21
ATOM     21  CB  GLY A   3      45.823  17.534  40.124  0.00  0.00    +0.076 C 
BRANCH  21  22
ATOM     22  CG  GLY A   3      45.355  18.977  39.952  0.00  0.00    +0.082 A 
ATOM     23  ND1 GLY A   3      44.765  19.764  40.861  0.00  0.00    -0.227 NA
ATOM     24  CE1 GLY A   3      44.505  20.915  40.306  0.00  0.00    +0.199 A 
ATOM     25  NE2 GLY A   3      44.916  20.850  39.061  0.00  0.00    -0.221 NA
ATOM     26  CD2 GLY A   3      45.448  19.698  38.779  0.00  0.00    +0.115 A 
ENDBRANCH  21  22
ENDBRANCH   6  21
ENDBRANCH   4   6
ENDBRANCH   1   2
BRANCH   1  27
ATOM     27  C   CYS A   4      50.914  18.793  37.965  0.00  0.00    +0.228 C 
ATOM     28  O   CYS A   4      51.460  18.975  36.873  0.00  0.00    -0.286 OA
ENDBRANCH   1  27
BRANCH   1  29
ATOM     29  CB  CYS A   4      50.279  20.995  38.878  0.00  0.00    +0.096 C 
BRANCH  29  30
ATOM     30  SG  CYS A   4      48.981  22.231  39.006  0.00  0.00    -0.080 S 
BRANCH  30  31
ATOM     31  SG  ALA A   2      48.919  23.107  37.188  0.00  0.00    -0.080 S 
BRANCH  31  32
ATOM     32  CB  ALA A   2      50.122  24.446  37.382  0.00  0.00    +0.098 C 
BRANCH  32  33
ATOM     33  CA  ALA A   2      49.773  25.700  36.485  0.00  0.00    +0.160 C 
BRANCH  33  35
ATOM     34  C   ALA A   1      49.510  24.819  34.228  0.00  0.00    +0.241 C 
ATOM     35  N   ALA A   2      50.235  25.490  35.116  0.00  0.00    -0.296 N 
ATOM     36  H   ALA A   2      51.157  25.876  34.828  0.00  0.00    +0.150 HD
ATOM     37  O   ALA A   1      48.329  24.556  34.440  0.00  0.00    -0.274 OA
BRANCH  34  38
ATOM     38  CA  ALA A   1      50.175  24.476  32.872  0.00  0.00    +0.172 C 
BRANCH  38  39
ATOM     39  CB  ALA A   1      50.822  23.066  32.851  0.00  0.00    +0.135 C 
ATOM     40  CG2 ALA A   1      51.867  22.787  33.920  0.00  0.00    +0.034 C 
BRANCH  39  41
ATOM     41  OG1 ALA A   1      49.727  22.191  32.998  0.00  0.00    -0.383 OA
ATOM     42  HG1 ALA A   1      49.096  22.325  32.247  0.00  0.00    +0.210 HD
ENDBRANCH  39  41
ENDBRANCH  38  39
BRANCH  38  43
ATOM     43  N   ALA A   1      51.215  25.400  32.464  0.00  0.00    -0.236 NA
ATOM     44  H   ALA A   1      52.066  25.510  33.051  0.00  0.00    +0.142 HD
ENDBRANCH  38  43
ENDBRANCH  34  38
ENDBRANCH  33  35
BRANCH  33  45
ATOM     45  C   ALA A   2      50.423  26.923  37.125  0.00  0.00    +0.242 C 
ATOM     46  N   GLY A   3      49.794  27.434  38.193  0.00  0.00    -0.296 N 
ATOM     47  H   GLY A   3      48.844  27.099  38.452  0.00  0.00    +0.150 HD
ATOM     48  O   ALA A   2      51.443  27.401  36.620  0.00  0.00    -0.273 OA
BRANCH  46  49
ATOM     49  CA  GLY A   3      50.444  28.450  38.978  0.00  0.00    +0.163 C 
BRANCH  49  50
ATOM     50  C   GLY A   3      51.105  27.748  40.178  0.00  0.00    +0.229 C 
ATOM     51  O   GLY A   3      51.065  26.510  40.318  0.00  0.00    -0.286 OA
ENDBRANCH  49  50
ENDBRANCH  46  49
ENDBRANCH  33  45
ENDBRANCH  32  33
ENDBRANCH  31  32
ENDBRANCH  30  31
ENDBRANCH  29  30
ENDBRANCH   1  29
TORSDOF 23
REMARK  Name = ../refined-set-2016/1bma/1bma_pocket.pdb
REMARK  206 active torsions:
REMARK  status: ('A' for Active; 'I' for Inactive)
REMARK    1  A    between atoms: _1  and  _5
REMARK    2  A    between atoms: _5  and  _6
REMARK    3  A    between atoms: _5  and  _8
REMARK    4  A    between atoms: _11  and  _13
REMARK    5  A    between atoms: _13  and  _14
REMARK    6  A    between atoms: _13  and  _16
REMARK    7  A    between atoms: _16  and  _17
REMARK    8  A    between atoms: _20  and  _22
REMARK    9  A    between atoms: _22  and  _23
REMARK   10  A    between atoms: _22  and  _25
REMARK   11  A    between atoms: _25  and  _26
REMARK   12  A    between atoms: _26  and  _61
REMARK   13  A    between atoms: _27  and  _29
REMARK   14  A    between atoms: _29  and  _30
REMARK   15  A    between atoms: _32  and  _34
REMARK   16  A    between atoms: _34  and  _35
REMARK   17  A    between atoms: _38  and  _40
REMARK   18  A    between atoms: _40  and  _41
REMARK   19  A    between atoms: _44  and  _46
REMARK   20  A    between atoms: _46  and  _47
REMARK   21  A    between atoms: _46  and  _49
REMARK   22  A    between atoms: _49  and  _50
REMARK   23  A    between atoms: _55  and  _57
REMARK   24  A    between atoms: _57  and  _58
REMARK   25  A    between atoms: _57  and  _60
REMARK   26  A    between atoms: _60  and  _61
REMARK   27  A    between atoms: _62  and  _64
REMARK   28  A    between atoms: _64  and  _65
REMARK   29  A    between atoms: _64  and  _67
REMARK   30  A    between atoms: _67  and  _68
REMARK   31  A    between atoms: _71  and  _73
REMARK   32  A    between atoms: _73  and  _74
REMARK   33  A    between atoms: _73  and  _76
REMARK   34  A    between atoms: _76  and  _77
REMARK   35  A    between atoms: _87  and  _89
REMARK   36  A    between atoms: _89  and  _90
REMARK   37  A    between atoms: _89  and  _92
REMARK   38  A    between atoms: _92  and  _93
REMARK   39  A    between atoms: _98  and  _100
REMARK   40  A    between atoms: _100  and  _101
REMARK   41  A    between atoms: _100  and  _103
REMARK   42  A    between atoms: _103  and  _104
REMARK   43  A    between atoms: _107  and  _109
REMARK   44  A    between atoms: _109  and  _110
REMARK   45  A    between atoms: _109  and  _112
REMARK   46  A    between atoms: _112  and  _113
REMARK   47  A    between atoms: _116  and  _118
REMARK   48  A    between atoms: _118  and  _119
REMARK   49  A    between atoms: _118  and  _121
REMARK   50  A    between atoms: _121  and  _122
REMARK   51  A    between atoms: _125  and  _127
REMARK   52  A    between atoms: _127  and  _128
REMARK   53  A    between atoms: _127  and  _130
REMARK   54  A    between atoms: _133  and  _135
REMARK   55  A    between atoms: _135  and  _136
REMARK   56  A    between atoms: _139  and  _141
REMARK   57  A    between atoms: _141  and  _142
REMARK   58  A    between atoms: _145  and  _147
REMARK   59  A    between atoms: _147  and  _148
REMARK   60  A    between atoms: _150  and  _152
REMARK   61  A    between atoms: _152  and  _153
REMARK   62  A    between atoms: _152  and  _155
REMARK   63  A    between atoms: _155  and  _156
REMARK   64  A    between atoms: _159  and  _161
REMARK   65  A    between atoms: _161  and  _162
REMARK   66  A    between atoms: _161  and  _164
REMARK   67  A    between atoms: _164  and  _165
REMARK   68  A    between atoms: _168  and  _170
REMARK   69  A    between atoms: _170  and  _171
REMARK   70  A    between atoms: _173  and  _175
REMARK   71  A    between atoms: _175  and  _176
REMARK   72  A    between atoms: _175  and  _178
REMARK   73  A    between atoms: _178  and  _179
REMARK   74  A    between atoms: _182  and  _184
REMARK   75  A    between atoms: _184  and  _185
REMARK   76  A    between atoms: _184  and  _187
REMARK   77  A    between atoms: _187  and  _188
REMARK   78  A    between atoms: _188  and  _189
REMARK   79  A    between atoms: _189  and  _190
REMARK   80  A    between atoms: _199  and  _201
REMARK   81  A    between atoms: _201  and  _202
REMARK   82  A    between atoms: _201  and  _204
REMARK   83  A    between atoms: _204  and  _205
REMARK   84  A    between atoms: _208  and  _210
REMARK   85  A    between atoms: _210  and  _211
REMARK   86  A    between atoms: _210  and  _213
REMARK   87  A    between atoms: _213  and  _214
REMARK   88  A    between atoms: _219  and  _221
REMARK   89  A    between atoms: _221  and  _222
REMARK   90  A    between atoms: _224  and  _226
REMARK   91  A    between atoms: _226  and  _227
REMARK   92  A    between atoms: _226  and  _229
REMARK   93  A    between atoms: _229  and  _230
REMARK   94  A    between atoms: _240  and  _242
REMARK   95  A    between atoms: _242  and  _243
REMARK   96  A    between atoms: _242  and  _245
REMARK   97  A    between atoms: _245  and  _246
REMARK   98  A    between atoms: _248  and  _250
REMARK   99  A    between atoms: _250  and  _251
REMARK  100  A    between atoms: _250  and  _253
REMARK  101  A    between atoms: _253  and  _254
REMARK  102  A    between atoms: _257  and  _259
REMARK  103  A    between atoms: _259  and  _260
REMARK  104  A    between atoms: _259  and  _262
REMARK  105  A    between atoms: _265  and  _267
REMARK  106  A    between atoms: _267  and  _268
REMARK  107  A    between atoms: _267  and  _270
REMARK  108  A    between atoms: _270  and  _271
REMARK  109  A    between atoms: _271  and  _272
REMARK  110  A    between atoms: _272  and  _273
REMARK  111  A    between atoms: _273  and  _274
REMARK  112  A    between atoms: _278  and  _280
REMARK  113  A    between atoms: _280  and  _281
REMARK  114  A    between atoms: _280  and  _283
REMARK  115  A    between atoms: _283  and  _284
REMARK  116  A    between atoms: _284  and  _285
REMARK  117  A    between atoms: _287  and  _289
REMARK  118  A    between atoms: _289  and  _290
REMARK  119  A    between atoms: _289  and  _292
REMARK  120  A    between atoms: _292  and  _293
REMARK  121  A    between atoms: _295  and  _297
REMARK  122  A    between atoms: _297  and  _298
REMARK  123  A    between atoms: _300  and  _302
REMARK  124  A    between atoms: _302  and  _303
REMARK  125  A    between atoms: _302  and  _305
REMARK  126  A    between atoms: _305  and  _306
REMARK  127  A    between atoms: _306  and  _441
REMARK  128  A    between atoms: _307  and  _309
REMARK  129  A    between atoms: _309  and  _310
REMARK  130  A    between atoms: _309  and  _312
REMARK  131  A    between atoms: _312  and  _313
REMARK  132  A    between atoms: _313  and  _314
REMARK  133  A    between atoms: _319  and  _321
REMARK  134  A    between atoms: _321  and  _322
REMARK  135  A    between atoms: _324  and  _326
REMARK  136  A    between atoms: _326  and  _327
REMARK  137  A    between atoms: _326  and  _329
REMARK  138  A    between atoms: _329  and  _330
REMARK  139  A    between atoms: _333  and  _335
REMARK  140  A    between atoms: _335  and  _336
REMARK  141  A    between atoms: _335  and  _338
REMARK  142  A    between atoms: _338  and  _339
REMARK  143  A    between atoms: _341  and  _343
REMARK  144  A    between atoms: _343  and  _344
REMARK  145  A    between atoms: _346  and  _348
REMARK  146  A    between atoms: _348  and  _349
REMARK  147  A    between atoms: _351  and  _353
REMARK  148  A    between atoms: _353  and  _354
REMARK  149  A    between atoms: _353  and  _356
REMARK  150  A    between atoms: _359  and  _361
REMARK  151  A    between atoms: _361  and  _362
REMARK  152  A    between atoms: _361  and  _364
REMARK  153  A    between atoms: _364  and  _365
REMARK  154  A    between atoms: _368  and  _370
REMARK  155  A    between atoms: _370  and  _371
REMARK  156  A    between atoms: _370  and  _373
REMARK  157  A    between atoms: _373  and  _374
REMARK  158  A    between atoms: _376  and  _378
REMARK  159  A    between atoms: _378  and  _379
REMARK  160  A    between atoms: _378  and  _381
REMARK  161  A    between atoms: _381  and  _382
REMARK  162  A    between atoms: _388  and  _390
REMARK  163  A    between atoms: _390  and  _391
REMARK  164  A    between atoms: _390  and  _393
REMARK  165  A    between atoms: _396  and  _398
REMARK  166  A    between atoms: _398  and  _399
REMARK  167  A    between atoms: _398  and  _401
REMARK  168  A    between atoms: _401  and  _402
REMARK  169  A    between atoms: _404  and  _406
REMARK  170  A    between atoms: _406  and  _407
REMARK  171  A    between atoms: _406  and  _409
REMARK  172  A    between atoms: _409  and  _410
REMARK  173  A    between atoms: _410  and  _411
REMARK  174  A    between atoms: _411  and  _412
REMARK  175  A    between atoms: _421  and  _423
REMARK  176  A    between atoms: _423  and  _424
REMARK  177  A    between atoms: _423  and  _426
REMARK  178  A    between atoms: _426  and  _427
REMARK  179  A    between atoms: _430  and  _432
REMARK  180  A    between atoms: _432  and  _433
REMARK  181  A    between atoms: _435  and  _437
REMARK  182  A    between atoms: _437  and  _438
REMARK  183  A    between atoms: _437  and  _440
REMARK  184  A    between atoms: _440  and  _441
REMARK  185  A    between atoms: _442  and  _444
REMARK  186  A    between atoms: _444  and  _445
REMARK  187  A    between atoms: _444  and  _447
REMARK  188  A    between atoms: _447  and  _448
REMARK  189  A    between atoms: _453  and  _455
REMARK  190  A    between atoms: _455  and  _456
REMARK  191  A    between atoms: _455  and  _458
REMARK  192  A    between atoms: _461  and  _463
REMARK  193  A    between atoms: _463  and  _464
REMARK  194  A    between atoms: _463  and  _466
REMARK  195  A    between atoms: _466  and  _467
REMARK  196  A    between atoms: _470  and  _472
REMARK  197  A    between atoms: _472  and  _473
REMARK  198  A    between atoms: _472  and  _475
REMARK  199  A    between atoms: _478  and  _480
REMARK  200  A    between atoms: _480  and  _481
REMARK  201  A    between atoms: _480  and  _483
REMARK  202  A    between atoms: _483  and  _484
REMARK  203  A    between atoms: _490  and  _492
REMARK  204  A    between atoms: _492  and  _493
REMARK  205  A    between atoms: _492  and  _495
REMARK  206  A    between atoms: _495  and  _496
REMARK                            x       y       z     vdW  Elec       q    Type
REMARK                         _______ _______ _______ _____ _____    ______ ____
ROOT
ATOM      1  CA  ASP A   1      50.545  13.889  37.961  0.00  0.00    +0.144 C 
ENDROOT
BRANCH   1   2
ATOM      2  N   ASP A   1      50.899  15.278  38.187  0.00  0.00    -0.239 NA
ATOM      3  H   ASP A   1      50.168  16.017  38.161  0.00  0.00    +0.142 HD
ENDBRANCH   1   2
BRANCH   1   4
ATOM      4  C   ASP A   1      51.208  13.313  36.716  0.00  0.00    +0.225 C 
ATOM      5  O   ASP A   1      51.656  12.159  36.748  0.00  0.00    -0.287 OA
ENDBRANCH   1   4
BRANCH   1   6
ATOM      6  CB  ASP A   1      49.029  13.724  37.841  0.00  0.00    +0.139 C 
BRANCH   6   7
ATOM      7  CG  ASP A   1      48.279  13.565  39.174  0.00  0.00    +0.367 C 
ATOM      8  OD2 ASP A   1      48.843  13.089  40.164  0.00  0.00    -0.246 OA
ATOM      9  OD1 ASP A   1      47.100  13.916  39.199  0.00  0.00    -0.246 OA
ENDBRANCH   6   7
ENDBRANCH   1   6
TORSDOF 4
REMARK  Name = ../refined-set-2016/1bma/1bma_pocket.pdb
REMARK  206 active torsions:
REMARK  status: ('A' for Active; 'I' for Inactive)
REMARK    1  A    between atoms: _1  and  _5
REMARK    2  A    between atoms: _5  and  _6
REMARK    3  A    between atoms: _5  and  _8
REMARK    4  A    between atoms: _11  and  _13
REMARK    5  A    between atoms: _13  and  _14
REMARK    6  A    between atoms: _13  and  _16
REMARK    7  A    between atoms: _16  and  _17
REMARK    8  A    between atoms: _20  and  _22
REMARK    9  A    between atoms: _22  and  _23
REMARK   10  A    between atoms: _22  and  _25
REMARK   11  A    between atoms: _25  and  _26
REMARK   12  A    between atoms: _26  and  _61
REMARK   13  A    between atoms: _27  and  _29
REMARK   14  A    between atoms: _29  and  _30
REMARK   15  A    between atoms: _32  and  _34
REMARK   16  A    between atoms: _34  and  _35
REMARK   17  A    between atoms: _38  and  _40
REMARK   18  A    between atoms: _40  and  _41
REMARK   19  A    between atoms: _44  and  _46
REMARK   20  A    between atoms: _46  and  _47
REMARK   21  A    between atoms: _46  and  _49
REMARK   22  A    between atoms: _49  and  _50
REMARK   23  A    between atoms: _55  and  _57
REMARK   24  A    between atoms: _57  and  _58
REMARK   25  A    between atoms: _57  and  _60
REMARK   26  A    between atoms: _60  and  _61
REMARK   27  A    between atoms: _62  and  _64
REMARK   28  A    between atoms: _64  and  _65
REMARK   29  A    between atoms: _64  and  _67
REMARK   30  A    between atoms: _67  and  _68
REMARK   31  A    between atoms: _71  and  _73
REMARK   32  A    between atoms: _73  and  _74
REMARK   33  A    between atoms: _73  and  _76
REMARK   34  A    between atoms: _76  and  _77
REMARK   35  A    between atoms: _87  and  _89
REMARK   36  A    between atoms: _89  and  _90
REMARK   37  A    between atoms: _89  and  _92
REMARK   38  A    between atoms: _92  and  _93
REMARK   39  A    between atoms: _98  and  _100
REMARK   40  A    between atoms: _100  and  _101
REMARK   41  A    between atoms: _100  and  _103
REMARK   42  A    between atoms: _103  and  _104
REMARK   43  A    between atoms: _107  and  _109
REMARK   44  A    between atoms: _109  and  _110
REMARK   45  A    between atoms: _109  and  _112
REMARK   46  A    between atoms: _112  and  _113
REMARK   47  A    between atoms: _116  and  _118
REMARK   48  A    between atoms: _118  and  _119
REMARK   49  A    between atoms: _118  and  _121
REMARK   50  A    between atoms: _121  and  _122
REMARK   51  A    between atoms: _125  and  _127
REMARK   52  A    between atoms: _127  and  _128
REMARK   53  A    between atoms: _127  and  _130
REMARK   54  A    between atoms: _133  and  _135
REMARK   55  A    between atoms: _135  and  _136
REMARK   56  A    between atoms: _139  and  _141
REMARK   57  A    between atoms: _141  and  _142
REMARK   58  A    between atoms: _145  and  _147
REMARK   59  A    between atoms: _147  and  _148
REMARK   60  A    between atoms: _150  and  _152
REMARK   61  A    between atoms: _152  and  _153
REMARK   62  A    between atoms: _152  and  _155
REMARK   63  A    between atoms: _155  and  _156
REMARK   64  A    between atoms: _159  and  _161
REMARK   65  A    between atoms: _161  and  _162
REMARK   66  A    between atoms: _161  and  _164
REMARK   67  A    between atoms: _164  and  _165
REMARK   68  A    between atoms: _168  and  _170
REMARK   69  A    between atoms: _170  and  _171
REMARK   70  A    between atoms: _173  and  _175
REMARK   71  A    between atoms: _175  and  _176
REMARK   72  A    between atoms: _175  and  _178
REMARK   73  A    between atoms: _178  and  _179
REMARK   74  A    between atoms: _182  and  _184
REMARK   75  A    between atoms: _184  and  _185
REMARK   76  A    between atoms: _184  and  _187
REMARK   77  A    between atoms: _187  and  _188
REMARK   78  A    between atoms: _188  and  _189
REMARK   79  A    between atoms: _189  and  _190
REMARK   80  A    between atoms: _199  and  _201
REMARK   81  A    between atoms: _201  and  _202
REMARK   82  A    between atoms: _201  and  _204
REMARK   83  A    between atoms: _204  and  _205
REMARK   84  A    between atoms: _208  and  _210
REMARK   85  A    between atoms: _210  and  _211
REMARK   86  A    between atoms: _210  and  _213
REMARK   87  A    between atoms: _213  and  _214
REMARK   88  A    between atoms: _219  and  _221
REMARK   89  A    between atoms: _221  and  _222
REMARK   90  A    between atoms: _224  and  _226
REMARK   91  A    between atoms: _226  and  _227
REMARK   92  A    between atoms: _226  and  _229
REMARK   93  A    between atoms: _229  and  _230
REMARK   94  A    between atoms: _240  and  _242
REMARK   95  A    between atoms: _242  and  _243
REMARK   96  A    between atoms: _242  and  _245
REMARK   97  A    between atoms: _245  and  _246
REMARK   98  A    between atoms: _248  and  _250
REMARK   99  A    between atoms: _250  and  _251
REMARK  100  A    between atoms: _250  and  _253
REMARK  101  A    between atoms: _253  and  _254
REMARK  102  A    between atoms: _257  and  _259
REMARK  103  A    between atoms: _259  and  _260
REMARK  104  A    between atoms: _259  and  _262
REMARK  105  A    between atoms: _265  and  _267
REMARK  106  A    between atoms: _267  and  _268
REMARK  107  A    between atoms: _267  and  _270
REMARK  108  A    between atoms: _270  and  _271
REMARK  109  A    between atoms: _271  and  _272
REMARK  110  A    between atoms: _272  and  _273
REMARK  111  A    between atoms: _273  and  _274
REMARK  112  A    between atoms: _278  and  _280
REMARK  113  A    between atoms: _280  and  _281
REMARK  114  A    between atoms: _280  and  _283
REMARK  115  A    between atoms: _283  and  _284
REMARK  116  A    between atoms: _284  and  _285
REMARK  117  A    between atoms: _287  and  _289
REMARK  118  A    between atoms: _289  and  _290
REMARK  119  A    between atoms: _289  and  _292
REMARK  120  A    between atoms: _292  and  _293
REMARK  121  A    between atoms: _295  and  _297
REMARK  122  A    between atoms: _297  and  _298
REMARK  123  A    between atoms: _300  and  _302
REMARK  124  A    between atoms: _302  and  _303
REMARK  125  A    between atoms: _302  and  _305
REMARK  126  A    between atoms: _305  and  _306
REMARK  127  A    between atoms: _306  and  _441
REMARK  128  A    between atoms: _307  and  _309
REMARK  129  A    between atoms: _309  and  _310
REMARK  130  A    between atoms: _309  and  _312
REMARK  131  A    between atoms: _312  and  _313
REMARK  132  A    between atoms: _313  and  _314
REMARK  133  A    between atoms: _319  and  _321
REMARK  134  A    between atoms: _321  and  _322
REMARK  135  A    between atoms: _324  and  _326
REMARK  136  A    between atoms: _326  and  _327
REMARK  137  A    between atoms: _326  and  _329
REMARK  138  A    between atoms: _329  and  _330
REMARK  139  A    between atoms: _333  and  _335
REMARK  140  A    between atoms: _335  and  _336
REMARK  141  A    between atoms: _335  and  _338
REMARK  142  A    between atoms: _338  and  _339
REMARK  143  A    between atoms: _341  and  _343
REMARK  144  A    between atoms: _343  and  _344
REMARK  145  A    between atoms: _346  and  _348
REMARK  146  A    between atoms: _348  and  _349
REMARK  147  A    between atoms: _351  and  _353
REMARK  148  A    between atoms: _353  and  _354
REMARK  149  A    between atoms: _353  and  _356
REMARK  150  A    between atoms: _359  and  _361
REMARK  151  A    between atoms: _361  and  _362
REMARK  152  A    between atoms: _361  and  _364
REMARK  153  A    between atoms: _364  and  _365
REMARK  154  A    between atoms: _368  and  _370
REMARK  155  A    between atoms: _370  and  _371
REMARK  156  A    between atoms: _370  and  _373
REMARK  157  A    between atoms: _373  and  _374
REMARK  158  A    between atoms: _376  and  _378
REMARK  159  A    between atoms: _378  and  _379
REMARK  160  A    between atoms: _378  and  _381
REMARK  161  A    between atoms: _381  and  _382
REMARK  162  A    between atoms: _388  and  _390
REMARK  163  A    between atoms: _390  and  _391
REMARK  164  A    between atoms: _390  and  _393
REMARK  165  A    between atoms: _396  and  _398
REMARK  166  A    between atoms: _398  and  _399
REMARK  167  A    between atoms: _398  and  _401
REMARK  168  A    between atoms: _401  and  _402
REMARK  169  A    between atoms: _404  and  _406
REMARK  170  A    between atoms: _406  and  _407
REMARK  171  A    between atoms: _406  and  _409
REMARK  172  A    between atoms: _409  and  _410
REMARK  173  A    between atoms: _410  and  _411
REMARK  174  A    between atoms: _411  and  _412
REMARK  175  A    between atoms: _421  and  _423
REMARK  176  A    between atoms: _423  and  _424
REMARK  177  A    between atoms: _423  and  _426
REMARK  178  A    between atoms: _426  and  _427
REMARK  179  A    between atoms: _430  and  _432
REMARK  180  A    between atoms: _432  and  _433
REMARK  181  A    between atoms: _435  and  _437
REMARK  182  A    between atoms: _437  and  _438
REMARK  183  A    between atoms: _437  and  _440
REMARK  184  A    between atoms: _440  and  _441
REMARK  185  A    between atoms: _442  and  _444
REMARK  186  A    between atoms: _444  and  _445
REMARK  187  A    between atoms: _444  and  _447
REMARK  188  A    between atoms: _447  and  _448
REMARK  189  A    between atoms: _453  and  _455
REMARK  190  A    between atoms: _455  and  _456
REMARK  191  A    between atoms: _455  and  _458
REMARK  192  A    between atoms: _461  and  _463
REMARK  193  A    between atoms: _463  and  _464
REMARK  194  A    between atoms: _463  and  _466
REMARK  195  A    between atoms: _466  and  _467
REMARK  196  A    between atoms: _470  and  _472
REMARK  197  A    between atoms: _472  and  _473
REMARK  198  A    between atoms: _472  and  _475
REMARK  199  A    between atoms: _478  and  _480
REMARK  200  A    between atoms: _480  and  _481
REMARK  201  A    between atoms: _480  and  _483
REMARK  202  A    between atoms: _483  and  _484
REMARK  203  A    between atoms: _490  and  _492
REMARK  204  A    between atoms: _492  and  _493
REMARK  205  A    between atoms: _492  and  _495
REMARK  206  A    between atoms: _495  and  _496
REMARK                            x       y       z     vdW  Elec       q    Type
REMARK                         _______ _______ _______ _____ _____    ______ ____
ROOT
ATOM      1  CA  ASP A   4      41.285   9.239  41.235  0.00  0.00    +0.160 C 
ENDROOT
BRANCH   1   3
ATOM      2  C   THR A   3      43.146  10.900  41.123  0.00  0.00    +0.243 C 
ATOM      3  N   ASP A   4      42.670   9.693  41.471  0.00  0.00    -0.296 N 
ATOM      4  H   ASP A   4      43.323   9.032  41.939  0.00  0.00    +0.150 HD
ATOM      5  O   THR A   3      42.462  11.748  40.532  0.00  0.00    -0.273 OA
BRANCH   2   6
ATOM      6  CA  THR A   3      44.608  11.181  41.502  0.00  0.00    +0.176 C 
BRANCH   6   9
ATOM      7  C   ASN A   2      44.429  10.790  43.941  0.00  0.00    +0.241 C 
ATOM      8  O   ASN A   2      43.391  11.435  44.072  0.00  0.00    -0.273 OA
ATOM      9  N   THR A   3      45.076  10.624  42.786  0.00  0.00    -0.295 N 
ATOM     10  H   THR A   3      45.958  10.072  42.791  0.00  0.00    +0.150 HD
BRANCH   7  11
ATOM     11  CA  ASN A   2      45.017  10.129  45.157  0.00  0.00    +0.158 C 
BRANCH  11  14
ATOM     12  C   TRP A   1      46.665  11.184  46.522  0.00  0.00    +0.239 C 
ATOM     13  O   TRP A   1      47.422  10.250  46.298  0.00  0.00    -0.274 OA
ATOM     14  N   ASN A   2      45.457  11.209  46.028  0.00  0.00    -0.297 N 
ATOM     15  H   ASN A   2      44.814  11.994  46.255  0.00  0.00    +0.150 HD
BRANCH  12  16
ATOM     16  CA  TRP A   1      47.155  12.347  47.348  0.00  0.00    +0.149 C 
BRANCH  16  17
ATOM     17  N   TRP A   1      47.783  11.833  48.568  0.00  0.00    -0.238 NA
ATOM     18  H   TRP A   1      48.793  12.031  48.721  0.00  0.00    +0.142 HD
ENDBRANCH  16  17
BRANCH  16  19
ATOM     19  CB  TRP A   1      48.157  13.169  46.445  0.00  0.00    +0.054 C 
BRANCH  19  20
ATOM     20  CG  TRP A   1      47.633  13.510  45.018  0.00  0.00    -0.002 A 
ATOM     21  CD2 TRP A   1      46.490  14.212  44.682  0.00  0.00    +0.013 A 
ATOM     22  CE3 TRP A   1      45.436  14.874  45.319  0.00  0.00    +0.001 A 
ATOM     23  CZ3 TRP A   1      44.425  15.458  44.549  0.00  0.00    +0.000 A 
ATOM     24  CH2 TRP A   1      44.462  15.398  43.155  0.00  0.00    +0.001 A 
ATOM     25  CZ2 TRP A   1      45.512  14.741  42.521  0.00  0.00    +0.017 A 
ATOM     26  CE2 TRP A   1      46.512  14.161  43.285  0.00  0.00    +0.056 A 
ATOM     27  NE1 TRP A   1      47.583  13.495  42.864  0.00  0.00    -0.352 N 
ATOM     28  HE1 TRP A   1      47.823  13.325  41.867  0.00  0.00    +0.166 HD
ATOM     29  CD1 TRP A   1      48.301  13.079  43.898  0.00  0.00    +0.068 A 
ENDBRANCH  19  20
ENDBRANCH  16  19
ENDBRANCH  12  16
ENDBRANCH  11  14
BRANCH  11  30
ATOM     30  CB  ASN A   2      43.966   9.302  45.883  0.00  0.00    +0.114 C 
BRANCH  30  31
ATOM     31  CG  ASN A   2      43.326   8.185  45.093  0.00  0.00    +0.222 C 
ATOM     32  ND2 ASN A   2      42.336   7.557  45.732  0.00  0.00    -0.329 N 
ATOM     33 HD21 ASN A   2      42.077   7.843  46.698  0.00  0.00    +0.145 HD
ATOM     34 HD22 ASN A   2      41.824   6.782  45.264  0.00  0.00    +0.145 HD
ATOM     35  OD1 ASN A   2      43.688   7.903  43.951  0.00  0.00    -0.275 OA
ENDBRANCH  30  31
ENDBRANCH  11  30
ENDBRANCH   7  11
ENDBRANCH   6   9
BRANCH   6  36
ATOM     36  CB  THR A   3      45.432  10.654  40.351  0.00  0.00    +0.137 C 
ATOM     37  CG2 THR A   3      45.218  11.522  39.143  0.00  0.00    +0.034 C 
BRANCH  36  38
ATOM     38  OG1 THR A   3      46.784  10.591  40.746  0.00  0.00    -0.382 OA
ATOM     39  HG1 THR A   3      46.871   9.986  41.525  0.00  0.00    +0.210 HD
ENDBRANCH  36  38
ENDBRANCH   6  36
ENDBRANCH   2   6
ENDBRANCH   1   3
BRANCH   1  40
ATOM     40  C   ASP A   4      40.234   9.804  42.210  0.00  0.00    +0.241 C 
ATOM     41  N   ASP A   5      40.685  10.572  43.235  0.00  0.00    -0.297 N 
ATOM     42  H   ASP A   5      41.708  10.730  43.331  0.00  0.00    +0.150 HD
ATOM     43  O   ASP A   4      39.035   9.498  42.075  0.00  0.00    -0.273 OA
BRANCH  41  44
ATOM     44  CA  ASP A   5      39.788  11.180  44.201  0.00  0.00    +0.160 C 
BRANCH  44  45
ATOM     45  C   ASP A   5      40.272  12.575  44.630  0.00  0.00    +0.241 C 
ATOM     46  O   ASP A   5      40.711  12.725  45.774  0.00  0.00    -0.273 OA
ATOM     47  N   VAL A   6      40.207  13.631  43.770  0.00  0.00    -0.297 N 
ATOM     48  H   VAL A   6      39.880  13.473  42.796  0.00  0.00    +0.150 HD
BRANCH  47  49
ATOM     49  CA  VAL A   6      40.590  14.990  44.190  0.00  0.00    +0.149 C 
BRANCH  49  50
ATOM     50  C   VAL A   6      39.676  15.478  45.338  0.00  0.00    +0.241 C 
ATOM     51  O   VAL A   6      40.099  16.273  46.166  0.00  0.00    -0.273 OA
ATOM     52  N   ALA A   7      38.442  14.967  45.449  0.00  0.00    -0.297 N 
ATOM     53  H   ALA A   7      38.140  14.249  44.760  0.00  0.00    +0.150 HD
BRANCH  52  54
ATOM     54  CA  ALA A   7      37.510  15.367  46.482  0.00  0.00    +0.149 C 
ATOM     55  CB  ALA A   7      36.125  14.865  46.138  0.00  0.00    +0.031 C 
BRANCH  54  56
ATOM     56  C   ALA A   7      37.913  14.831  47.846  0.00  0.00    +0.241 C 
ATOM     57  O   ALA A   7      37.409  15.291  48.867  0.00  0.00    -0.273 OA
ATOM     58  N   ALA A   8      38.850  13.880  47.903  0.00  0.00    -0.297 N 
ATOM     59  H   ALA A   8      39.174  13.428  47.024  0.00  0.00    +0.150 HD
BRANCH  58  60
ATOM     60  CA  ALA A   8      39.424  13.466  49.171  0.00  0.00    +0.149 C 
ATOM     61  CB  ALA A   8      40.153  12.138  48.997  0.00  0.00    +0.031 C 
BRANCH  60  62
ATOM     62  C   ALA A   8      40.428  14.478  49.778  0.00  0.00    +0.241 C 
ATOM     63  O   ALA A   8      40.738  14.402  50.975  0.00  0.00    -0.273 OA
ATOM     64  N   GLY A   9      40.932  15.450  49.004  0.00  0.00    -0.296 N 
ATOM     65  H   GLY A   9      40.637  15.504  48.008  0.00  0.00    +0.150 HD
BRANCH  64  66
ATOM     66  CA  GLY A   9      41.878  16.431  49.511  0.00  0.00    +0.163 C 
BRANCH  66  67
ATOM     67  C   GLY A   9      43.291  16.009  49.180  0.00  0.00    +0.229 C 
ATOM     68  O   GLY A   9      43.517  15.221  48.264  0.00  0.00    -0.286 OA
ENDBRANCH  66  67
ENDBRANCH  64  66
ENDBRANCH  60  62
ENDBRANCH  58  60
ENDBRANCH  54  56
ENDBRANCH  52  54
ENDBRANCH  49  50
BRANCH  49  69
ATOM     69  CB  VAL A   6      40.533  15.972  42.915  0.00  0.00    +0.027 C 
ATOM     70  CG2 VAL A   6      41.252  17.269  43.206  0.00  0.00    +0.002 C 
ATOM     71  CG1 VAL A   6      39.125  16.374  42.552  0.00  0.00    +0.002 C 
ENDBRANCH  49  69
ENDBRANCH  47  49
ENDBRANCH  44  45
BRANCH  44  72
ATOM     72  CB  ASP A   5      39.715  10.218  45.352  0.00  0.00    +0.143 C 
BRANCH  72  73
ATOM     73  CG  ASP A   5      38.567  10.408  46.325  0.00  0.00    +0.367 C 
ATOM     74  OD2 ASP A   5      38.468   9.544  47.203  0.00  0.00    -0.246 OA
ATOM     75  OD1 ASP A   5      37.798  11.372  46.219  0.00  0.00    -0.246 OA
ENDBRANCH  72  73
ENDBRANCH  44  72
ENDBRANCH  41  44
ENDBRANCH   1  40
BRANCH   1  76
ATOM     76  CB  ASP A   4      41.132   7.708  41.349  0.00  0.00    +0.143 C 
BRANCH  76  77
ATOM     77  CG  ASP A   4      42.027   6.808  40.511  0.00  0.00    +0.367 C 
ATOM     78  OD2 ASP A   4      42.279   5.687  40.975  0.00  0.00    -0.246 OA
ATOM     79  OD1 ASP A   4      42.446   7.214  39.420  0.00  0.00    -0.246 OA
ENDBRANCH  76  77
ENDBRANCH   1  76
TORSDOF 29
REMARK  Name = ../refined-set-2016/1bma/1bma_pocket.pdb
REMARK  206 active torsions:
REMARK  status: ('A' for Active; 'I' for Inactive)
REMARK    1  A    between atoms: _1  and  _5
REMARK    2  A    between atoms: _5  and  _6
REMARK    3  A    between atoms: _5  and  _8
REMARK    4  A    between atoms: _11  and  _13
REMARK    5  A    between atoms: _13  and  _14
REMARK    6  A    between atoms: _13  and  _16
REMARK    7  A    between atoms: _16  and  _17
REMARK    8  A    between atoms: _20  and  _22
REMARK    9  A    between atoms: _22  and  _23
REMARK   10  A    between atoms: _22  and  _25
REMARK   11  A    between atoms: _25  and  _26
REMARK   12  A    between atoms: _26  and  _61
REMARK   13  A    between atoms: _27  and  _29
REMARK   14  A    between atoms: _29  and  _30
REMARK   15  A    between atoms: _32  and  _34
REMARK   16  A    between atoms: _34  and  _35
REMARK   17  A    between atoms: _38  and  _40
REMARK   18  A    between atoms: _40  and  _41
REMARK   19  A    between atoms: _44  and  _46
REMARK   20  A    between atoms: _46  and  _47
REMARK   21  A    between atoms: _46  and  _49
REMARK   22  A    between atoms: _49  and  _50
REMARK   23  A    between atoms: _55  and  _57
REMARK   24  A    between atoms: _57  and  _58
REMARK   25  A    between atoms: _57  and  _60
REMARK   26  A    between atoms: _60  and  _61
REMARK   27  A    between atoms: _62  and  _64
REMARK   28  A    between atoms: _64  and  _65
REMARK   29  A    between atoms: _64  and  _67
REMARK   30  A    between atoms: _67  and  _68
REMARK   31  A    between atoms: _71  and  _73
REMARK   32  A    between atoms: _73  and  _74
REMARK   33  A    between atoms: _73  and  _76
REMARK   34  A    between atoms: _76  and  _77
REMARK   35  A    between atoms: _87  and  _89
REMARK   36  A    between atoms: _89  and  _90
REMARK   37  A    between atoms: _89  and  _92
REMARK   38  A    between atoms: _92  and  _93
REMARK   39  A    between atoms: _98  and  _100
REMARK   40  A    between atoms: _100  and  _101
REMARK   41  A    between atoms: _100  and  _103
REMARK   42  A    between atoms: _103  and  _104
REMARK   43  A    between atoms: _107  and  _109
REMARK   44  A    between atoms: _109  and  _110
REMARK   45  A    between atoms: _109  and  _112
REMARK   46  A    between atoms: _112  and  _113
REMARK   47  A    between atoms: _116  and  _118
REMARK   48  A    between atoms: _118  and  _119
REMARK   49  A    between atoms: _118  and  _121
REMARK   50  A    between atoms: _121  and  _122
REMARK   51  A    between atoms: _125  and  _127
REMARK   52  A    between atoms: _127  and  _128
REMARK   53  A    between atoms: _127  and  _130
REMARK   54  A    between atoms: _133  and  _135
REMARK   55  A    between atoms: _135  and  _136
REMARK   56  A    between atoms: _139  and  _141
REMARK   57  A    between atoms: _141  and  _142
REMARK   58  A    between atoms: _145  and  _147
REMARK   59  A    between atoms: _147  and  _148
REMARK   60  A    between atoms: _150  and  _152
REMARK   61  A    between atoms: _152  and  _153
REMARK   62  A    between atoms: _152  and  _155
REMARK   63  A    between atoms: _155  and  _156
REMARK   64  A    between atoms: _159  and  _161
REMARK   65  A    between atoms: _161  and  _162
REMARK   66  A    between atoms: _161  and  _164
REMARK   67  A    between atoms: _164  and  _165
REMARK   68  A    between atoms: _168  and  _170
REMARK   69  A    between atoms: _170  and  _171
REMARK   70  A    between atoms: _173  and  _175
REMARK   71  A    between atoms: _175  and  _176
REMARK   72  A    between atoms: _175  and  _178
REMARK   73  A    between atoms: _178  and  _179
REMARK   74  A    between atoms: _182  and  _184
REMARK   75  A    between atoms: _184  and  _185
REMARK   76  A    between atoms: _184  and  _187
REMARK   77  A    between atoms: _187  and  _188
REMARK   78  A    between atoms: _188  and  _189
REMARK   79  A    between atoms: _189  and  _190
REMARK   80  A    between atoms: _199  and  _201
REMARK   81  A    between atoms: _201  and  _202
REMARK   82  A    between atoms: _201  and  _204
REMARK   83  A    between atoms: _204  and  _205
REMARK   84  A    between atoms: _208  and  _210
REMARK   85  A    between atoms: _210  and  _211
REMARK   86  A    between atoms: _210  and  _213
REMARK   87  A    between atoms: _213  and  _214
REMARK   88  A    between atoms: _219  and  _221
REMARK   89  A    between atoms: _221  and  _222
REMARK   90  A    between atoms: _224  and  _226
REMARK   91  A    between atoms: _226  and  _227
REMARK   92  A    between atoms: _226  and  _229
REMARK   93  A    between atoms: _229  and  _230
REMARK   94  A    between atoms: _240  and  _242
REMARK   95  A    between atoms: _242  and  _243
REMARK   96  A    between atoms: _242  and  _245
REMARK   97  A    between atoms: _245  and  _246
REMARK   98  A    between atoms: _248  and  _250
REMARK   99  A    between atoms: _250  and  _251
REMARK  100  A    between atoms: _250  and  _253
REMARK  101  A    between atoms: _253  and  _254
REMARK  102  A    between atoms: _257  and  _259
REMARK  103  A    between atoms: _259  and  _260
REMARK  104  A    between atoms: _259  and  _262
REMARK  105  A    between atoms: _265  and  _267
REMARK  106  A    between atoms: _267  and  _268
REMARK  107  A    between atoms: _267  and  _270
REMARK  108  A    between atoms: _270  and  _271
REMARK  109  A    between atoms: _271  and  _272
REMARK  110  A    between atoms: _272  and  _273
REMARK  111  A    between atoms: _273  and  _274
REMARK  112  A    between atoms: _278  and  _280
REMARK  113  A    between atoms: _280  and  _281
REMARK  114  A    between atoms: _280  and  _283
REMARK  115  A    between atoms: _283  and  _284
REMARK  116  A    between atoms: _284  and  _285
REMARK  117  A    between atoms: _287  and  _289
REMARK  118  A    between atoms: _289  and  _290
REMARK  119  A    between atoms: _289  and  _292
REMARK  120  A    between atoms: _292  and  _293
REMARK  121  A    between atoms: _295  and  _297
REMARK  122  A    between atoms: _297  and  _298
REMARK  123  A    between atoms: _300  and  _302
REMARK  124  A    between atoms: _302  and  _303
REMARK  125  A    between atoms: _302  and  _305
REMARK  126  A    between atoms: _305  and  _306
REMARK  127  A    between atoms: _306  and  _441
REMARK  128  A    between atoms: _307  and  _309
REMARK  129  A    between atoms: _309  and  _310
REMARK  130  A    between atoms: _309  and  _312
REMARK  131  A    between atoms: _312  and  _313
REMARK  132  A    between atoms: _313  and  _314
REMARK  133  A    between atoms: _319  and  _321
REMARK  134  A    between atoms: _321  and  _322
REMARK  135  A    between atoms: _324  and  _326
REMARK  136  A    between atoms: _326  and  _327
REMARK  137  A    between atoms: _326  and  _329
REMARK  138  A    between atoms: _329  and  _330
REMARK  139  A    between atoms: _333  and  _335
REMARK  140  A    between atoms: _335  and  _336
REMARK  141  A    between atoms: _335  and  _338
REMARK  142  A    between atoms: _338  and  _339
REMARK  143  A    between atoms: _341  and  _343
REMARK  144  A    between atoms: _343  and  _344
REMARK  145  A    between atoms: _346  and  _348
REMARK  146  A    between atoms: _348  and  _349
REMARK  147  A    between atoms: _351  and  _353
REMARK  148  A    between atoms: _353  and  _354
REMARK  149  A    between atoms: _353  and  _356
REMARK  150  A    between atoms: _359  and  _361
REMARK  151  A    between atoms: _361  and  _362
REMARK  152  A    between atoms: _361  and  _364
REMARK  153  A    between atoms: _364  and  _365
REMARK  154  A    between atoms: _368  and  _370
REMARK  155  A    between atoms: _370  and  _371
REMARK  156  A    between atoms: _370  and  _373
REMARK  157  A    between atoms: _373  and  _374
REMARK  158  A    between atoms: _376  and  _378
REMARK  159  A    between atoms: _378  and  _379
REMARK  160  A    between atoms: _378  and  _381
REMARK  161  A    between atoms: _381  and  _382
REMARK  162  A    between atoms: _388  and  _390
REMARK  163  A    between atoms: _390  and  _391
REMARK  164  A    between atoms: _390  and  _393
REMARK  165  A    between atoms: _396  and  _398
REMARK  166  A    between atoms: _398  and  _399
REMARK  167  A    between atoms: _398  and  _401
REMARK  168  A    between atoms: _401  and  _402
REMARK  169  A    between atoms: _404  and  _406
REMARK  170  A    between atoms: _406  and  _407
REMARK  171  A    between atoms: _406  and  _409
REMARK  172  A    between atoms: _409  and  _410
REMARK  173  A    between atoms: _410  and  _411
REMARK  174  A    between atoms: _411  and  _412
REMARK  175  A    between atoms: _421  and  _423
REMARK  176  A    between atoms: _423  and  _424
REMARK  177  A    between atoms: _423  and  _426
REMARK  178  A    between atoms: _426  and  _427
REMARK  179  A    between atoms: _430  and  _432
REMARK  180  A    between atoms: _432  and  _433
REMARK  181  A    between atoms: _435  and  _437
REMARK  182  A    between atoms: _437  and  _438
REMARK  183  A    between atoms: _437  and  _440
REMARK  184  A    between atoms: _440  and  _441
REMARK  185  A    between atoms: _442  and  _444
REMARK  186  A    between atoms: _444  and  _445
REMARK  187  A    between atoms: _444  and  _447
REMARK  188  A    between atoms: _447  and  _448
REMARK  189  A    between atoms: _453  and  _455
REMARK  190  A    between atoms: _455  and  _456
REMARK  191  A    between atoms: _455  and  _458
REMARK  192  A    between atoms: _461  and  _463
REMARK  193  A    between atoms: _463  and  _464
REMARK  194  A    between atoms: _463  and  _466
REMARK  195  A    between atoms: _466  and  _467
REMARK  196  A    between atoms: _470  and  _472
REMARK  197  A    between atoms: _472  and  _473
REMARK  198  A    between atoms: _472  and  _475
REMARK  199  A    between atoms: _478  and  _480
REMARK  200  A    between atoms: _480  and  _481
REMARK  201  A    between atoms: _480  and  _483
REMARK  202  A    between atoms: _483  and  _484
REMARK  203  A    between atoms: _490  and  _492
REMARK  204  A    between atoms: _492  and  _493
REMARK  205  A    between atoms: _492  and  _495
REMARK  206  A    between atoms: _495  and  _496
REMARK                            x       y       z     vdW  Elec       q    Type
REMARK                         _______ _______ _______ _____ _____    ______ ____
ROOT
ATOM      1  CA  ASP A   1      46.017  18.293  46.666  0.00  0.00    +0.144 C 
ENDROOT
BRANCH   1   2
ATOM      2  N   ASP A   1      45.542  17.824  47.956  0.00  0.00    -0.239 NA
ATOM      3  H   ASP A   1      44.710  18.258  48.405  0.00  0.00    +0.142 HD
ENDBRANCH   1   2
BRANCH   1   4
ATOM      4  C   ASP A   1      47.061  19.380  46.853  0.00  0.00    +0.225 C 
ATOM      5  O   ASP A   1      46.795  20.575  46.695  0.00  0.00    -0.287 OA
ENDBRANCH   1   4
BRANCH   1   6
ATOM      6  CB  ASP A   1      44.835  18.832  45.808  0.00  0.00    +0.139 C 
BRANCH   6   7
ATOM      7  CG  ASP A   1      45.130  18.984  44.297  0.00  0.00    +0.367 C 
ATOM      8  OD2 ASP A   1      46.207  18.606  43.862  0.00  0.00    -0.246 OA
ATOM      9  OD1 ASP A   1      44.261  19.453  43.571  0.00  0.00    -0.246 OA
ENDBRANCH   6   7
ENDBRANCH   1   6
TORSDOF 4
REMARK  Name = ../refined-set-2016/1bma/1bma_pocket.pdb
REMARK  206 active torsions:
REMARK  status: ('A' for Active; 'I' for Inactive)
REMARK    1  A    between atoms: _1  and  _5
REMARK    2  A    between atoms: _5  and  _6
REMARK    3  A    between atoms: _5  and  _8
REMARK    4  A    between atoms: _11  and  _13
REMARK    5  A    between atoms: _13  and  _14
REMARK    6  A    between atoms: _13  and  _16
REMARK    7  A    between atoms: _16  and  _17
REMARK    8  A    between atoms: _20  and  _22
REMARK    9  A    between atoms: _22  and  _23
REMARK   10  A    between atoms: _22  and  _25
REMARK   11  A    between atoms: _25  and  _26
REMARK   12  A    between atoms: _26  and  _61
REMARK   13  A    between atoms: _27  and  _29
REMARK   14  A    between atoms: _29  and  _30
REMARK   15  A    between atoms: _32  and  _34
REMARK   16  A    between atoms: _34  and  _35
REMARK   17  A    between atoms: _38  and  _40
REMARK   18  A    between atoms: _40  and  _41
REMARK   19  A    between atoms: _44  and  _46
REMARK   20  A    between atoms: _46  and  _47
REMARK   21  A    between atoms: _46  and  _49
REMARK   22  A    between atoms: _49  and  _50
REMARK   23  A    between atoms: _55  and  _57
REMARK   24  A    between atoms: _57  and  _58
REMARK   25  A    between atoms: _57  and  _60
REMARK   26  A    between atoms: _60  and  _61
REMARK   27  A    between atoms: _62  and  _64
REMARK   28  A    between atoms: _64  and  _65
REMARK   29  A    between atoms: _64  and  _67
REMARK   30  A    between atoms: _67  and  _68
REMARK   31  A    between atoms: _71  and  _73
REMARK   32  A    between atoms: _73  and  _74
REMARK   33  A    between atoms: _73  and  _76
REMARK   34  A    between atoms: _76  and  _77
REMARK   35  A    between atoms: _87  and  _89
REMARK   36  A    between atoms: _89  and  _90
REMARK   37  A    between atoms: _89  and  _92
REMARK   38  A    between atoms: _92  and  _93
REMARK   39  A    between atoms: _98  and  _100
REMARK   40  A    between atoms: _100  and  _101
REMARK   41  A    between atoms: _100  and  _103
REMARK   42  A    between atoms: _103  and  _104
REMARK   43  A    between atoms: _107  and  _109
REMARK   44  A    between atoms: _109  and  _110
REMARK   45  A    between atoms: _109  and  _112
REMARK   46  A    between atoms: _112  and  _113
REMARK   47  A    between atoms: _116  and  _118
REMARK   48  A    between atoms: _118  and  _119
REMARK   49  A    between atoms: _118  and  _121
REMARK   50  A    between atoms: _121  and  _122
REMARK   51  A    between atoms: _125  and  _127
REMARK   52  A    between atoms: _127  and  _128
REMARK   53  A    between atoms: _127  and  _130
REMARK   54  A    between atoms: _133  and  _135
REMARK   55  A    between atoms: _135  and  _136
REMARK   56  A    between atoms: _139  and  _141
REMARK   57  A    between atoms: _141  and  _142
REMARK   58  A    between atoms: _145  and  _147
REMARK   59  A    between atoms: _147  and  _148
REMARK   60  A    between atoms: _150  and  _152
REMARK   61  A    between atoms: _152  and  _153
REMARK   62  A    between atoms: _152  and  _155
REMARK   63  A    between atoms: _155  and  _156
REMARK   64  A    between atoms: _159  and  _161
REMARK   65  A    between atoms: _161  and  _162
REMARK   66  A    between atoms: _161  and  _164
REMARK   67  A    between atoms: _164  and  _165
REMARK   68  A    between atoms: _168  and  _170
REMARK   69  A    between atoms: _170  and  _171
REMARK   70  A    between atoms: _173  and  _175
REMARK   71  A    between atoms: _175  and  _176
REMARK   72  A    between atoms: _175  and  _178
REMARK   73  A    between atoms: _178  and  _179
REMARK   74  A    between atoms: _182  and  _184
REMARK   75  A    between atoms: _184  and  _185
REMARK   76  A    between atoms: _184  and  _187
REMARK   77  A    between atoms: _187  and  _188
REMARK   78  A    between atoms: _188  and  _189
REMARK   79  A    between atoms: _189  and  _190
REMARK   80  A    between atoms: _199  and  _201
REMARK   81  A    between atoms: _201  and  _202
REMARK   82  A    between atoms: _201  and  _204
REMARK   83  A    between atoms: _204  and  _205
REMARK   84  A    between atoms: _208  and  _210
REMARK   85  A    between atoms: _210  and  _211
REMARK   86  A    between atoms: _210  and  _213
REMARK   87  A    between atoms: _213  and  _214
REMARK   88  A    between atoms: _219  and  _221
REMARK   89  A    between atoms: _221  and  _222
REMARK   90  A    between atoms: _224  and  _226
REMARK   91  A    between atoms: _226  and  _227
REMARK   92  A    between atoms: _226  and  _229
REMARK   93  A    between atoms: _229  and  _230
REMARK   94  A    between atoms: _240  and  _242
REMARK   95  A    between atoms: _242  and  _243
REMARK   96  A    between atoms: _242  and  _245
REMARK   97  A    between atoms: _245  and  _246
REMARK   98  A    between atoms: _248  and  _250
REMARK   99  A    between atoms: _250  and  _251
REMARK  100  A    between atoms: _250  and  _253
REMARK  101  A    between atoms: _253  and  _254
REMARK  102  A    between atoms: _257  and  _259
REMARK  103  A    between atoms: _259  and  _260
REMARK  104  A    between atoms: _259  and  _262
REMARK  105  A    between atoms: _265  and  _267
REMARK  106  A    between atoms: _267  and  _268
REMARK  107  A    between atoms: _267  and  _270
REMARK  108  A    between atoms: _270  and  _271
REMARK  109  A    between atoms: _271  and  _272
REMARK  110  A    between atoms: _272  and  _273
REMARK  111  A    between atoms: _273  and  _274
REMARK  112  A    between atoms: _278  and  _280
REMARK  113  A    between atoms: _280  and  _281
REMARK  114  A    between atoms: _280  and  _283
REMARK  115  A    between atoms: _283  and  _284
REMARK  116  A    between atoms: _284  and  _285
REMARK  117  A    between atoms: _287  and  _289
REMARK  118  A    between atoms: _289  and  _290
REMARK  119  A    between atoms: _289  and  _292
REMARK  120  A    between atoms: _292  and  _293
REMARK  121  A    between atoms: _295  and  _297
REMARK  122  A    between atoms: _297  and  _298
REMARK  123  A    between atoms: _300  and  _302
REMARK  124  A    between atoms: _302  and  _303
REMARK  125  A    between atoms: _302  and  _305
REMARK  126  A    between atoms: _305  and  _306
REMARK  127  A    between atoms: _306  and  _441
REMARK  128  A    between atoms: _307  and  _309
REMARK  129  A    between atoms: _309  and  _310
REMARK  130  A    between atoms: _309  and  _312
REMARK  131  A    between atoms: _312  and  _313
REMARK  132  A    between atoms: _313  and  _314
REMARK  133  A    between atoms: _319  and  _321
REMARK  134  A    between atoms: _321  and  _322
REMARK  135  A    between atoms: _324  and  _326
REMARK  136  A    between atoms: _326  and  _327
REMARK  137  A    between atoms: _326  and  _329
REMARK  138  A    between atoms: _329  and  _330
REMARK  139  A    between atoms: _333  and  _335
REMARK  140  A    between atoms: _335  and  _336
REMARK  141  A    between atoms: _335  and  _338
REMARK  142  A    between atoms: _338  and  _339
REMARK  143  A    between atoms: _341  and  _343
REMARK  144  A    between atoms: _343  and  _344
REMARK  145  A    between atoms: _346  and  _348
REMARK  146  A    between atoms: _348  and  _349
REMARK  147  A    between atoms: _351  and  _353
REMARK  148  A    between atoms: _353  and  _354
REMARK  149  A    between atoms: _353  and  _356
REMARK  150  A    between atoms: _359  and  _361
REMARK  151  A    between atoms: _361  and  _362
REMARK  152  A    between atoms: _361  and  _364
REMARK  153  A    between atoms: _364  and  _365
REMARK  154  A    between atoms: _368  and  _370
REMARK  155  A    between atoms: _370  and  _371
REMARK  156  A    between atoms: _370  and  _373
REMARK  157  A    between atoms: _373  and  _374
REMARK  158  A    between atoms: _376  and  _378
REMARK  159  A    between atoms: _378  and  _379
REMARK  160  A    between atoms: _378  and  _381
REMARK  161  A    between atoms: _381  and  _382
REMARK  162  A    between atoms: _388  and  _390
REMARK  163  A    between atoms: _390  and  _391
REMARK  164  A    between atoms: _390  and  _393
REMARK  165  A    between atoms: _396  and  _398
REMARK  166  A    between atoms: _398  and  _399
REMARK  167  A    between atoms: _398  and  _401
REMARK  168  A    between atoms: _401  and  _402
REMARK  169  A    between atoms: _404  and  _406
REMARK  170  A    between atoms: _406  and  _407
REMARK  171  A    between atoms: _406  and  _409
REMARK  172  A    between atoms: _409  and  _410
REMARK  173  A    between atoms: _410  and  _411
REMARK  174  A    between atoms: _411  and  _412
REMARK  175  A    between atoms: _421  and  _423
REMARK  176  A    between atoms: _423  and  _424
REMARK  177  A    between atoms: _423  and  _426
REMARK  178  A    between atoms: _426  and  _427
REMARK  179  A    between atoms: _430  and  _432
REMARK  180  A    between atoms: _432  and  _433
REMARK  181  A    between atoms: _435  and  _437
REMARK  182  A    between atoms: _437  and  _438
REMARK  183  A    between atoms: _437  and  _440
REMARK  184  A    between atoms: _440  and  _441
REMARK  185  A    between atoms: _442  and  _444
REMARK  186  A    between atoms: _444  and  _445
REMARK  187  A    between atoms: _444  and  _447
REMARK  188  A    between atoms: _447  and  _448
REMARK  189  A    between atoms: _453  and  _455
REMARK  190  A    between atoms: _455  and  _456
REMARK  191  A    between atoms: _455  and  _458
REMARK  192  A    between atoms: _461  and  _463
REMARK  193  A    between atoms: _463  and  _464
REMARK  194  A    between atoms: _463  and  _466
REMARK  195  A    between atoms: _466  and  _467
REMARK  196  A    between atoms: _470  and  _472
REMARK  197  A    between atoms: _472  and  _473
REMARK  198  A    between atoms: _472  and  _475
REMARK  199  A    between atoms: _478  and  _480
REMARK  200  A    between atoms: _480  and  _481
REMARK  201  A    between atoms: _480  and  _483
REMARK  202  A    between atoms: _483  and  _484
REMARK  203  A    between atoms: _490  and  _492
REMARK  204  A    between atoms: _492  and  _493
REMARK  205  A    between atoms: _492  and  _495
REMARK  206  A    between atoms: _495  and  _496
REMARK                            x       y       z     vdW  Elec       q    Type
REMARK                         _______ _______ _______ _____ _____    ______ ____
ROOT
ATOM      1  CA  ILE A   1      42.751  34.637  43.247  0.00  0.00    +0.133 C 
ENDROOT
BRANCH   1   2
ATOM      2  N   ILE A   1      42.116  35.757  43.968  0.00  0.00    -0.239 NA
ATOM      3  H   ILE A   1      41.238  36.180  43.604  0.00  0.00    +0.142 HD
ENDBRANCH   1   2
BRANCH   1   4
ATOM      4  CB  ILE A   1      41.669  33.658  42.648  0.00  0.00    +0.023 C 
ATOM      5  CG2 ILE A   1      40.755  34.349  41.648  0.00  0.00    +0.002 C 
BRANCH   4   6
ATOM      6  CG1 ILE A   1      42.414  32.453  42.000  0.00  0.00    +0.002 C 
ATOM      7  CD1 ILE A   1      41.552  31.284  41.473  0.00  0.00    +0.000 C 
ENDBRANCH   4   6
ENDBRANCH   1   4
BRANCH   1   8
ATOM      8  C   ILE A   1      43.617  35.210  42.158  0.00  0.00    +0.224 C 
ATOM      9  O   ILE A   1      43.264  36.216  41.529  0.00  0.00    -0.287 OA
ENDBRANCH   1   8
TORSDOF 4
REMARK  Name = ../refined-set-2016/1bma/1bma_pocket.pdb
REMARK  206 active torsions:
REMARK  status: ('A' for Active; 'I' for Inactive)
REMARK    1  A    between atoms: _1  and  _5
REMARK    2  A    between atoms: _5  and  _6
REMARK    3  A    between atoms: _5  and  _8
REMARK    4  A    between atoms: _11  and  _13
REMARK    5  A    between atoms: _13  and  _14
REMARK    6  A    between atoms: _13  and  _16
REMARK    7  A    between atoms: _16  and  _17
REMARK    8  A    between atoms: _20  and  _22
REMARK    9  A    between atoms: _22  and  _23
REMARK   10  A    between atoms: _22  and  _25
REMARK   11  A    between atoms: _25  and  _26
REMARK   12  A    between atoms: _26  and  _61
REMARK   13  A    between atoms: _27  and  _29
REMARK   14  A    between atoms: _29  and  _30
REMARK   15  A    between atoms: _32  and  _34
REMARK   16  A    between atoms: _34  and  _35
REMARK   17  A    between atoms: _38  and  _40
REMARK   18  A    between atoms: _40  and  _41
REMARK   19  A    between atoms: _44  and  _46
REMARK   20  A    between atoms: _46  and  _47
REMARK   21  A    between atoms: _46  and  _49
REMARK   22  A    between atoms: _49  and  _50
REMARK   23  A    between atoms: _55  and  _57
REMARK   24  A    between atoms: _57  and  _58
REMARK   25  A    between atoms: _57  and  _60
REMARK   26  A    between atoms: _60  and  _61
REMARK   27  A    between atoms: _62  and  _64
REMARK   28  A    between atoms: _64  and  _65
REMARK   29  A    between atoms: _64  and  _67
REMARK   30  A    between atoms: _67  and  _68
REMARK   31  A    between atoms: _71  and  _73
REMARK   32  A    between atoms: _73  and  _74
REMARK   33  A    between atoms: _73  and  _76
REMARK   34  A    between atoms: _76  and  _77
REMARK   35  A    between atoms: _87  and  _89
REMARK   36  A    between atoms: _89  and  _90
REMARK   37  A    between atoms: _89  and  _92
REMARK   38  A    between atoms: _92  and  _93
REMARK   39  A    between atoms: _98  and  _100
REMARK   40  A    between atoms: _100  and  _101
REMARK   41  A    between atoms: _100  and  _103
REMARK   42  A    between atoms: _103  and  _104
REMARK   43  A    between atoms: _107  and  _109
REMARK   44  A    between atoms: _109  and  _110
REMARK   45  A    between atoms: _109  and  _112
REMARK   46  A    between atoms: _112  and  _113
REMARK   47  A    between atoms: _116  and  _118
REMARK   48  A    between atoms: _118  and  _119
REMARK   49  A    between atoms: _118  and  _121
REMARK   50  A    between atoms: _121  and  _122
REMARK   51  A    between atoms: _125  and  _127
REMARK   52  A    between atoms: _127  and  _128
REMARK   53  A    between atoms: _127  and  _130
REMARK   54  A    between atoms: _133  and  _135
REMARK   55  A    between atoms: _135  and  _136
REMARK   56  A    between atoms: _139  and  _141
REMARK   57  A    between atoms: _141  and  _142
REMARK   58  A    between atoms: _145  and  _147
REMARK   59  A    between atoms: _147  and  _148
REMARK   60  A    between atoms: _150  and  _152
REMARK   61  A    between atoms: _152  and  _153
REMARK   62  A    between atoms: _152  and  _155
REMARK   63  A    between atoms: _155  and  _156
REMARK   64  A    between atoms: _159  and  _161
REMARK   65  A    between atoms: _161  and  _162
REMARK   66  A    between atoms: _161  and  _164
REMARK   67  A    between atoms: _164  and  _165
REMARK   68  A    between atoms: _168  and  _170
REMARK   69  A    between atoms: _170  and  _171
REMARK   70  A    between atoms: _173  and  _175
REMARK   71  A    between atoms: _175  and  _176
REMARK   72  A    between atoms: _175  and  _178
REMARK   73  A    between atoms: _178  and  _179
REMARK   74  A    between atoms: _182  and  _184
REMARK   75  A    between atoms: _184  and  _185
REMARK   76  A    between atoms: _184  and  _187
REMARK   77  A    between atoms: _187  and  _188
REMARK   78  A    between atoms: _188  and  _189
REMARK   79  A    between atoms: _189  and  _190
REMARK   80  A    between atoms: _199  and  _201
REMARK   81  A    between atoms: _201  and  _202
REMARK   82  A    between atoms: _201  and  _204
REMARK   83  A    between atoms: _204  and  _205
REMARK   84  A    between atoms: _208  and  _210
REMARK   85  A    between atoms: _210  and  _211
REMARK   86  A    between atoms: _210  and  _213
REMARK   87  A    between atoms: _213  and  _214
REMARK   88  A    between atoms: _219  and  _221
REMARK   89  A    between atoms: _221  and  _222
REMARK   90  A    between atoms: _224  and  _226
REMARK   91  A    between atoms: _226  and  _227
REMARK   92  A    between atoms: _226  and  _229
REMARK   93  A    between atoms: _229  and  _230
REMARK   94  A    between atoms: _240  and  _242
REMARK   95  A    between atoms: _242  and  _243
REMARK   96  A    between atoms: _242  and  _245
REMARK   97  A    between atoms: _245  and  _246
REMARK   98  A    between atoms: _248  and  _250
REMARK   99  A    between atoms: _250  and  _251
REMARK  100  A    between atoms: _250  and  _253
REMARK  101  A    between atoms: _253  and  _254
REMARK  102  A    between atoms: _257  and  _259
REMARK  103  A    between atoms: _259  and  _260
REMARK  104  A    between atoms: _259  and  _262
REMARK  105  A    between atoms: _265  and  _267
REMARK  106  A    between atoms: _267  and  _268
REMARK  107  A    between atoms: _267  and  _270
REMARK  108  A    between atoms: _270  and  _271
REMARK  109  A    between atoms: _271  and  _272
REMARK  110  A    between atoms: _272  and  _273
REMARK  111  A    between atoms: _273  and  _274
REMARK  112  A    between atoms: _278  and  _280
REMARK  113  A    between atoms: _280  and  _281
REMARK  114  A    between atoms: _280  and  _283
REMARK  115  A    between atoms: _283  and  _284
REMARK  116  A    between atoms: _284  and  _285
REMARK  117  A    between atoms: _287  and  _289
REMARK  118  A    between atoms: _289  and  _290
REMARK  119  A    between atoms: _289  and  _292
REMARK  120  A    between atoms: _292  and  _293
REMARK  121  A    between atoms: _295  and  _297
REMARK  122  A    between atoms: _297  and  _298
REMARK  123  A    between atoms: _300  and  _302
REMARK  124  A    between atoms: _302  and  _303
REMARK  125  A    between atoms: _302  and  _305
REMARK  126  A    between atoms: _305  and  _306
REMARK  127  A    between atoms: _306  and  _441
REMARK  128  A    between atoms: _307  and  _309
REMARK  129  A    between atoms: _309  and  _310
REMARK  130  A    between atoms: _309  and  _312
REMARK  131  A    between atoms: _312  and  _313
REMARK  132  A    between atoms: _313  and  _314
REMARK  133  A    between atoms: _319  and  _321
REMARK  134  A    between atoms: _321  and  _322
REMARK  135  A    between atoms: _324  and  _326
REMARK  136  A    between atoms: _326  and  _327
REMARK  137  A    between atoms: _326  and  _329
REMARK  138  A    between atoms: _329  and  _330
REMARK  139  A    between atoms: _333  and  _335
REMARK  140  A    between atoms: _335  and  _336
REMARK  141  A    between atoms: _335  and  _338
REMARK  142  A    between atoms: _338  and  _339
REMARK  143  A    between atoms: _341  and  _343
REMARK  144  A    between atoms: _343  and  _344
REMARK  145  A    between atoms: _346  and  _348
REMARK  146  A    between atoms: _348  and  _349
REMARK  147  A    between atoms: _351  and  _353
REMARK  148  A    between atoms: _353  and  _354
REMARK  149  A    between atoms: _353  and  _356
REMARK  150  A    between atoms: _359  and  _361
REMARK  151  A    between atoms: _361  and  _362
REMARK  152  A    between atoms: _361  and  _364
REMARK  153  A    between atoms: _364  and  _365
REMARK  154  A    between atoms: _368  and  _370
REMARK  155  A    between atoms: _370  and  _371
REMARK  156  A    between atoms: _370  and  _373
REMARK  157  A    between atoms: _373  and  _374
REMARK  158  A    between atoms: _376  and  _378
REMARK  159  A    between atoms: _378  and  _379
REMARK  160  A    between atoms: _378  and  _381
REMARK  161  A    between atoms: _381  and  _382
REMARK  162  A    between atoms: _388  and  _390
REMARK  163  A    between atoms: _390  and  _391
REMARK  164  A    between atoms: _390  and  _393
REMARK  165  A    between atoms: _396  and  _398
REMARK  166  A    between atoms: _398  and  _399
REMARK  167  A    between atoms: _398  and  _401
REMARK  168  A    between atoms: _401  and  _402
REMARK  169  A    between atoms: _404  and  _406
REMARK  170  A    between atoms: _406  and  _407
REMARK  171  A    between atoms: _406  and  _409
REMARK  172  A    between atoms: _409  and  _410
REMARK  173  A    between atoms: _410  and  _411
REMARK  174  A    between atoms: _411  and  _412
REMARK  175  A    between atoms: _421  and  _423
REMARK  176  A    between atoms: _423  and  _424
REMARK  177  A    between atoms: _423  and  _426
REMARK  178  A    between atoms: _426  and  _427
REMARK  179  A    between atoms: _430  and  _432
REMARK  180  A    between atoms: _432  and  _433
REMARK  181  A    between atoms: _435  and  _437
REMARK  182  A    between atoms: _437  and  _438
REMARK  183  A    between atoms: _437  and  _440
REMARK  184  A    between atoms: _440  and  _441
REMARK  185  A    between atoms: _442  and  _444
REMARK  186  A    between atoms: _444  and  _445
REMARK  187  A    between atoms: _444  and  _447
REMARK  188  A    between atoms: _447  and  _448
REMARK  189  A    between atoms: _453  and  _455
REMARK  190  A    between atoms: _455  and  _456
REMARK  191  A    between atoms: _455  and  _458
REMARK  192  A    between atoms: _461  and  _463
REMARK  193  A    between atoms: _463  and  _464
REMARK  194  A    between atoms: _463  and  _466
REMARK  195  A    between atoms: _466  and  _467
REMARK  196  A    between atoms: _470  and  _472
REMARK  197  A    between atoms: _472  and  _473
REMARK  198  A    between atoms: _472  and  _475
REMARK  199  A    between atoms: _478  and  _480
REMARK  200  A    between atoms: _480  and  _481
REMARK  201  A    between atoms: _480  and  _483
REMARK  202  A    between atoms: _483  and  _484
REMARK  203  A    between atoms: _490  and  _492
REMARK  204  A    between atoms: _492  and  _493
REMARK  205  A    between atoms: _492  and  _495
REMARK  206  A    between atoms: _495  and  _496
REMARK                            x       y       z     vdW  Elec       q    Type
REMARK                         _______ _______ _______ _____ _____    ______ ____
ROOT
ATOM      1  C   GLY A   1      43.335  30.928  32.510  0.00  0.00    +0.240 C 
ATOM      2  O   GLY A   1      43.270  32.144  32.321  0.00  0.00    -0.274 OA
ATOM      3  N   LEU A   2      42.438  30.060  32.037  0.00  0.00    -0.298 N 
ATOM      4  H   LEU A   2      42.491  29.072  32.358  0.00  0.00    +0.150 HD
ENDROOT
BRANCH   1   5
ATOM      5  CA  GLY A   1      44.410  30.330  33.395  0.00  0.00    +0.169 C 
BRANCH   5   6
ATOM      6  N   GLY A   1      45.346  31.299  33.929  0.00  0.00    -0.236 NA
ATOM      7  H   GLY A   1      45.344  31.480  34.953  0.00  0.00    +0.142 HD
ENDBRANCH   5   6
ENDBRANCH   1   5
BRANCH   3   8
ATOM      8  CA  LEU A   2      41.387  30.425  31.092  0.00  0.00    +0.137 C 
BRANCH   8   9
ATOM      9  C   LEU A   2      40.533  31.537  31.615  0.00  0.00    +0.227 C 
ATOM     10  O   LEU A   2      40.138  31.552  32.795  0.00  0.00    -0.286 OA
ENDBRANCH   8   9
BRANCH   8  11
ATOM     11  CB  LEU A   2      40.429  29.279  30.782  0.00  0.00    +0.028 C 
BRANCH  11  12
ATOM     12  CG  LEU A   2      40.950  27.945  30.363  0.00  0.00    +0.002 C 
ATOM     13  CD2 LEU A   2      39.772  27.102  29.900  0.00  0.00    +0.000 C 
ATOM     14  CD1 LEU A   2      42.009  28.104  29.318  0.00  0.00    +0.000 C 
ENDBRANCH  11  12
ENDBRANCH   8  11
ENDBRANCH   3   8
TORSDOF 6
REMARK  Name = ../refined-set-2016/1bma/1bma_pocket.pdb
REMARK  206 active torsions:
REMARK  status: ('A' for Active; 'I' for Inactive)
REMARK    1  A    between atoms: _1  and  _5
REMARK    2  A    between atoms: _5  and  _6
REMARK    3  A    between atoms: _5  and  _8
REMARK    4  A    between atoms: _11  and  _13
REMARK    5  A    between atoms: _13  and  _14
REMARK    6  A    between atoms: _13  and  _16
REMARK    7  A    between atoms: _16  and  _17
REMARK    8  A    between atoms: _20  and  _22
REMARK    9  A    between atoms: _22  and  _23
REMARK   10  A    between atoms: _22  and  _25
REMARK   11  A    between atoms: _25  and  _26
REMARK   12  A    between atoms: _26  and  _61
REMARK   13  A    between atoms: _27  and  _29
REMARK   14  A    between atoms: _29  and  _30
REMARK   15  A    between atoms: _32  and  _34
REMARK   16  A    between atoms: _34  and  _35
REMARK   17  A    between atoms: _38  and  _40
REMARK   18  A    between atoms: _40  and  _41
REMARK   19  A    between atoms: _44  and  _46
REMARK   20  A    between atoms: _46  and  _47
REMARK   21  A    between atoms: _46  and  _49
REMARK   22  A    between atoms: _49  and  _50
REMARK   23  A    between atoms: _55  and  _57
REMARK   24  A    between atoms: _57  and  _58
REMARK   25  A    between atoms: _57  and  _60
REMARK   26  A    between atoms: _60  and  _61
REMARK   27  A    between atoms: _62  and  _64
REMARK   28  A    between atoms: _64  and  _65
REMARK   29  A    between atoms: _64  and  _67
REMARK   30  A    between atoms: _67  and  _68
REMARK   31  A    between atoms: _71  and  _73
REMARK   32  A    between atoms: _73  and  _74
REMARK   33  A    between atoms: _73  and  _76
REMARK   34  A    between atoms: _76  and  _77
REMARK   35  A    between atoms: _87  and  _89
REMARK   36  A    between atoms: _89  and  _90
REMARK   37  A    between atoms: _89  and  _92
REMARK   38  A    between atoms: _92  and  _93
REMARK   39  A    between atoms: _98  and  _100
REMARK   40  A    between atoms: _100  and  _101
REMARK   41  A    between atoms: _100  and  _103
REMARK   42  A    between atoms: _103  and  _104
REMARK   43  A    between atoms: _107  and  _109
REMARK   44  A    between atoms: _109  and  _110
REMARK   45  A    between atoms: _109  and  _112
REMARK   46  A    between atoms: _112  and  _113
REMARK   47  A    between atoms: _116  and  _118
REMARK   48  A    between atoms: _118  and  _119
REMARK   49  A    between atoms: _118  and  _121
REMARK   50  A    between atoms: _121  and  _122
REMARK   51  A    between atoms: _125  and  _127
REMARK   52  A    between atoms: _127  and  _128
REMARK   53  A    between atoms: _127  and  _130
REMARK   54  A    between atoms: _133  and  _135
REMARK   55  A    between atoms: _135  and  _136
REMARK   56  A    between atoms: _139  and  _141
REMARK   57  A    between atoms: _141  and  _142
REMARK   58  A    between atoms: _145  and  _147
REMARK   59  A    between atoms: _147  and  _148
REMARK   60  A    between atoms: _150  and  _152
REMARK   61  A    between atoms: _152  and  _153
REMARK   62  A    between atoms: _152  and  _155
REMARK   63  A    between atoms: _155  and  _156
REMARK   64  A    between atoms: _159  and  _161
REMARK   65  A    between atoms: _161  and  _162
REMARK   66  A    between atoms: _161  and  _164
REMARK   67  A    between atoms: _164  and  _165
REMARK   68  A    between atoms: _168  and  _170
REMARK   69  A    between atoms: _170  and  _171
REMARK   70  A    between atoms: _173  and  _175
REMARK   71  A    between atoms: _175  and  _176
REMARK   72  A    between atoms: _175  and  _178
REMARK   73  A    between atoms: _178  and  _179
REMARK   74  A    between atoms: _182  and  _184
REMARK   75  A    between atoms: _184  and  _185
REMARK   76  A    between atoms: _184  and  _187
REMARK   77  A    between atoms: _187  and  _188
REMARK   78  A    between atoms: _188  and  _189
REMARK   79  A    between atoms: _189  and  _190
REMARK   80  A    between atoms: _199  and  _201
REMARK   81  A    between atoms: _201  and  _202
REMARK   82  A    between atoms: _201  and  _204
REMARK   83  A    between atoms: _204  and  _205
REMARK   84  A    between atoms: _208  and  _210
REMARK   85  A    between atoms: _210  and  _211
REMARK   86  A    between atoms: _210  and  _213
REMARK   87  A    between atoms: _213  and  _214
REMARK   88  A    between atoms: _219  and  _221
REMARK   89  A    between atoms: _221  and  _222
REMARK   90  A    between atoms: _224  and  _226
REMARK   91  A    between atoms: _226  and  _227
REMARK   92  A    between atoms: _226  and  _229
REMARK   93  A    between atoms: _229  and  _230
REMARK   94  A    between atoms: _240  and  _242
REMARK   95  A    between atoms: _242  and  _243
REMARK   96  A    between atoms: _242  and  _245
REMARK   97  A    between atoms: _245  and  _246
REMARK   98  A    between atoms: _248  and  _250
REMARK   99  A    between atoms: _250  and  _251
REMARK  100  A    between atoms: _250  and  _253
REMARK  101  A    between atoms: _253  and  _254
REMARK  102  A    between atoms: _257  and  _259
REMARK  103  A    between atoms: _259  and  _260
REMARK  104  A    between atoms: _259  and  _262
REMARK  105  A    between atoms: _265  and  _267
REMARK  106  A    between atoms: _267  and  _268
REMARK  107  A    between atoms: _267  and  _270
REMARK  108  A    between atoms: _270  and  _271
REMARK  109  A    between atoms: _271  and  _272
REMARK  110  A    between atoms: _272  and  _273
REMARK  111  A    between atoms: _273  and  _274
REMARK  112  A    between atoms: _278  and  _280
REMARK  113  A    between atoms: _280  and  _281
REMARK  114  A    between atoms: _280  and  _283
REMARK  115  A    between atoms: _283  and  _284
REMARK  116  A    between atoms: _284  and  _285
REMARK  117  A    between atoms: _287  and  _289
REMARK  118  A    between atoms: _289  and  _290
REMARK  119  A    between atoms: _289  and  _292
REMARK  120  A    between atoms: _292  and  _293
REMARK  121  A    between atoms: _295  and  _297
REMARK  122  A    between atoms: _297  and  _298
REMARK  123  A    between atoms: _300  and  _302
REMARK  124  A    between atoms: _302  and  _303
REMARK  125  A    between atoms: _302  and  _305
REMARK  126  A    between atoms: _305  and  _306
REMARK  127  A    between atoms: _306  and  _441
REMARK  128  A    between atoms: _307  and  _309
REMARK  129  A    between atoms: _309  and  _310
REMARK  130  A    between atoms: _309  and  _312
REMARK  131  A    between atoms: _312  and  _313
REMARK  132  A    between atoms: _313  and  _314
REMARK  133  A    between atoms: _319  and  _321
REMARK  134  A    between atoms: _321  and  _322
REMARK  135  A    between atoms: _324  and  _326
REMARK  136  A    between atoms: _326  and  _327
REMARK  137  A    between atoms: _326  and  _329
REMARK  138  A    between atoms: _329  and  _330
REMARK  139  A    between atoms: _333  and  _335
REMARK  140  A    between atoms: _335  and  _336
REMARK  141  A    between atoms: _335  and  _338
REMARK  142  A    between atoms: _338  and  _339
REMARK  143  A    between atoms: _341  and  _343
REMARK  144  A    between atoms: _343  and  _344
REMARK  145  A    between atoms: _346  and  _348
REMARK  146  A    between atoms: _348  and  _349
REMARK  147  A    between atoms: _351  and  _353
REMARK  148  A    between atoms: _353  and  _354
REMARK  149  A    between atoms: _353  and  _356
REMARK  150  A    between atoms: _359  and  _361
REMARK  151  A    between atoms: _361  and  _362
REMARK  152  A    between atoms: _361  and  _364
REMARK  153  A    between atoms: _364  and  _365
REMARK  154  A    between atoms: _368  and  _370
REMARK  155  A    between atoms: _370  and  _371
REMARK  156  A    between atoms: _370  and  _373
REMARK  157  A    between atoms: _373  and  _374
REMARK  158  A    between atoms: _376  and  _378
REMARK  159  A    between atoms: _378  and  _379
REMARK  160  A    between atoms: _378  and  _381
REMARK  161  A    between atoms: _381  and  _382
REMARK  162  A    between atoms: _388  and  _390
REMARK  163  A    between atoms: _390  and  _391
REMARK  164  A    between atoms: _390  and  _393
REMARK  165  A    between atoms: _396  and  _398
REMARK  166  A    between atoms: _398  and  _399
REMARK  167  A    between atoms: _398  and  _401
REMARK  168  A    between atoms: _401  and  _402
REMARK  169  A    between atoms: _404  and  _406
REMARK  170  A    between atoms: _406  and  _407
REMARK  171  A    between atoms: _406  and  _409
REMARK  172  A    between atoms: _409  and  _410
REMARK  173  A    between atoms: _410  and  _411
REMARK  174  A    between atoms: _411  and  _412
REMARK  175  A    between atoms: _421  and  _423
REMARK  176  A    between atoms: _423  and  _424
REMARK  177  A    between atoms: _423  and  _426
REMARK  178  A    between atoms: _426  and  _427
REMARK  179  A    between atoms: _430  and  _432
REMARK  180  A    between atoms: _432  and  _433
REMARK  181  A    between atoms: _435  and  _437
REMARK  182  A    between atoms: _437  and  _438
REMARK  183  A    between atoms: _437  and  _440
REMARK  184  A    between atoms: _440  and  _441
REMARK  185  A    between atoms: _442  and  _444
REMARK  186  A    between atoms: _444  and  _445
REMARK  187  A    between atoms: _444  and  _447
REMARK  188  A    between atoms: _447  and  _448
REMARK  189  A    between atoms: _453  and  _455
REMARK  190  A    between atoms: _455  and  _456
REMARK  191  A    between atoms: _455  and  _458
REMARK  192  A    between atoms: _461  and  _463
REMARK  193  A    between atoms: _463  and  _464
REMARK  194  A    between atoms: _463  and  _466
REMARK  195  A    between atoms: _466  and  _467
REMARK  196  A    between atoms: _470  and  _472
REMARK  197  A    between atoms: _472  and  _473
REMARK  198  A    between atoms: _472  and  _475
REMARK  199  A    between atoms: _478  and  _480
REMARK  200  A    between atoms: _480  and  _481
REMARK  201  A    between atoms: _480  and  _483
REMARK  202  A    between atoms: _483  and  _484
REMARK  203  A    between atoms: _490  and  _492
REMARK  204  A    between atoms: _492  and  _493
REMARK  205  A    between atoms: _492  and  _495
REMARK  206  A    between atoms: _495  and  _496
REMARK                            x       y       z     vdW  Elec       q    Type
REMARK                         _______ _______ _______ _____ _____    ______ ____
ROOT
ATOM      1  CA  THR A   2      34.967  28.299  30.424  0.00  0.00    +0.176 C 
ENDROOT
BRANCH   1   3
ATOM      2  C   ARG A   1      36.241  30.399  30.140  0.00  0.00    +0.238 C 
ATOM      3  N   THR A   2      35.125  29.758  30.488  0.00  0.00    -0.295 N 
ATOM      4  H   THR A   2      34.320  30.324  30.824  0.00  0.00    +0.150 HD
ATOM      5  O   ARG A   1      37.274  29.796  29.839  0.00  0.00    -0.274 OA
BRANCH   2   6
ATOM      6  CA  ARG A   1      36.199  31.916  30.057  0.00  0.00    +0.145 C 
BRANCH   6   7
ATOM      7  N   ARG A   1      37.589  32.297  30.250  0.00  0.00    -0.238 NA
ATOM      8  H   ARG A   1      38.326  31.655  29.895  0.00  0.00    +0.142 HD
ENDBRANCH   6   7
BRANCH   6   9
ATOM      9  CB  ARG A   1      35.622  32.208  28.642  0.00  0.00    +0.030 C 
BRANCH   9  10
ATOM     10  CG  ARG A   1      35.542  33.557  27.934  0.00  0.00    +0.045 C 
BRANCH  10  11
ATOM     11  CD  ARG A   1      34.361  34.465  28.283  0.00  0.00    +0.174 C 
BRANCH  11  12
ATOM     12  NE  ARG A   1      33.052  33.811  28.152  0.00  0.00    -0.265 N 
ATOM     13  HE  ARG A   1      32.875  32.964  28.729  0.00  0.00    +0.259 HD
ATOM     14  CZ  ARG A   1      32.061  34.233  27.333  0.00  0.00    +0.342 C 
ATOM     15  NH2 ARG A   1      30.897  33.581  27.372  0.00  0.00    -0.292 N 
ATOM     16 HH21 ARG A   1      30.774  32.776  28.018  0.00  0.00    +0.255 HD
ATOM     17 HH22 ARG A   1      30.114  33.878  26.756  0.00  0.00    +0.255 HD
ATOM     18  NH1 ARG A   1      32.169  35.307  26.524  0.00  0.00    -0.292 N 
ATOM     19 HH11 ARG A   1      33.050  35.860  26.508  0.00  0.00    +0.255 HD
ATOM     20 HH12 ARG A   1      31.371  35.583  25.916  0.00  0.00    +0.255 HD
ENDBRANCH  11  12
ENDBRANCH  10  11
ENDBRANCH   9  10
ENDBRANCH   6   9
ENDBRANCH   2   6
ENDBRANCH   1   3
BRANCH   1  21
ATOM     21  C   THR A   2      35.237  27.895  28.963  0.00  0.00    +0.243 C 
ATOM     22  N   ASN A   3      36.126  26.926  28.749  0.00  0.00    -0.297 N 
ATOM     23  H   ASN A   3      36.552  26.463  29.577  0.00  0.00    +0.150 HD
ATOM     24  O   THR A   2      34.671  28.486  28.039  0.00  0.00    -0.273 OA
BRANCH  22  25
ATOM     25  CA  ASN A   3      36.538  26.475  27.424  0.00  0.00    +0.158 C 
BRANCH  25  26
ATOM     26  C   ASN A   3      37.083  27.596  26.559  0.00  0.00    +0.241 C 
ATOM     27  N   GLY A   4      37.682  28.633  27.180  0.00  0.00    -0.296 N 
ATOM     28  H   GLY A   4      37.708  28.638  28.220  0.00  0.00    +0.150 HD
ATOM     29  O   ASN A   3      36.934  27.509  25.339  0.00  0.00    -0.273 OA
BRANCH  27  30
ATOM     30  CA  GLY A   4      38.293  29.745  26.469  0.00  0.00    +0.163 C 
BRANCH  30  31
ATOM     31  C   GLY A   4      39.772  29.503  26.257  0.00  0.00    +0.229 C 
ATOM     32  O   GLY A   4      40.259  28.392  25.990  0.00  0.00    -0.286 OA
ENDBRANCH  30  31
ENDBRANCH  27  30
ENDBRANCH  25  26
BRANCH  25  33
ATOM     33  CB  ASN A   3      35.370  25.809  26.676  0.00  0.00    +0.114 C 
BRANCH  33  34
ATOM     34  CG  ASN A   3      34.910  24.544  27.381  0.00  0.00    +0.222 C 
ATOM     35  OD1 ASN A   3      35.706  23.653  27.729  0.00  0.00    -0.275 OA
ATOM     36  ND2 ASN A   3      33.596  24.510  27.614  0.00  0.00    -0.329 N 
ATOM     37 HD21 ASN A   3      33.178  23.701  28.116  0.00  0.00    +0.145 HD
ATOM     38 HD22 ASN A   3      32.991  25.292  27.293  0.00  0.00    +0.145 HD
ENDBRANCH  33  34
ENDBRANCH  25  33
ENDBRANCH  22  25
ENDBRANCH   1  21
BRANCH   1  39
ATOM     39  CB  THR A   2      33.536  27.922  30.815  0.00  0.00    +0.137 C 
ATOM     40  CG2 THR A   2      33.199  26.458  30.680  0.00  0.00    +0.034 C 
BRANCH  39  41
ATOM     41  OG1 THR A   2      33.409  28.313  32.174  0.00  0.00    -0.382 OA
ATOM     42  HG1 THR A   2      32.498  28.096  32.495  0.00  0.00    +0.210 HD
ENDBRANCH  39  41
ENDBRANCH   1  39
TORSDOF 16
REMARK  Name = ../refined-set-2016/1bma/1bma_pocket.pdb
REMARK  206 active torsions:
REMARK  status: ('A' for Active; 'I' for Inactive)
REMARK    1  A    between atoms: _1  and  _5
REMARK    2  A    between atoms: _5  and  _6
REMARK    3  A    between atoms: _5  and  _8
REMARK    4  A    between atoms: _11  and  _13
REMARK    5  A    between atoms: _13  and  _14
REMARK    6  A    between atoms: _13  and  _16
REMARK    7  A    between atoms: _16  and  _17
REMARK    8  A    between atoms: _20  and  _22
REMARK    9  A    between atoms: _22  and  _23
REMARK   10  A    between atoms: _22  and  _25
REMARK   11  A    between atoms: _25  and  _26
REMARK   12  A    between atoms: _26  and  _61
REMARK   13  A    between atoms: _27  and  _29
REMARK   14  A    between atoms: _29  and  _30
REMARK   15  A    between atoms: _32  and  _34
REMARK   16  A    between atoms: _34  and  _35
REMARK   17  A    between atoms: _38  and  _40
REMARK   18  A    between atoms: _40  and  _41
REMARK   19  A    between atoms: _44  and  _46
REMARK   20  A    between atoms: _46  and  _47
REMARK   21  A    between atoms: _46  and  _49
REMARK   22  A    between atoms: _49  and  _50
REMARK   23  A    between atoms: _55  and  _57
REMARK   24  A    between atoms: _57  and  _58
REMARK   25  A    between atoms: _57  and  _60
REMARK   26  A    between atoms: _60  and  _61
REMARK   27  A    between atoms: _62  and  _64
REMARK   28  A    between atoms: _64  and  _65
REMARK   29  A    between atoms: _64  and  _67
REMARK   30  A    between atoms: _67  and  _68
REMARK   31  A    between atoms: _71  and  _73
REMARK   32  A    between atoms: _73  and  _74
REMARK   33  A    between atoms: _73  and  _76
REMARK   34  A    between atoms: _76  and  _77
REMARK   35  A    between atoms: _87  and  _89
REMARK   36  A    between atoms: _89  and  _90
REMARK   37  A    between atoms: _89  and  _92
REMARK   38  A    between atoms: _92  and  _93
REMARK   39  A    between atoms: _98  and  _100
REMARK   40  A    between atoms: _100  and  _101
REMARK   41  A    between atoms: _100  and  _103
REMARK   42  A    between atoms: _103  and  _104
REMARK   43  A    between atoms: _107  and  _109
REMARK   44  A    between atoms: _109  and  _110
REMARK   45  A    between atoms: _109  and  _112
REMARK   46  A    between atoms: _112  and  _113
REMARK   47  A    between atoms: _116  and  _118
REMARK   48  A    between atoms: _118  and  _119
REMARK   49  A    between atoms: _118  and  _121
REMARK   50  A    between atoms: _121  and  _122
REMARK   51  A    between atoms: _125  and  _127
REMARK   52  A    between atoms: _127  and  _128
REMARK   53  A    between atoms: _127  and  _130
REMARK   54  A    between atoms: _133  and  _135
REMARK   55  A    between atoms: _135  and  _136
REMARK   56  A    between atoms: _139  and  _141
REMARK   57  A    between atoms: _141  and  _142
REMARK   58  A    between atoms: _145  and  _147
REMARK   59  A    between atoms: _147  and  _148
REMARK   60  A    between atoms: _150  and  _152
REMARK   61  A    between atoms: _152  and  _153
REMARK   62  A    between atoms: _152  and  _155
REMARK   63  A    between atoms: _155  and  _156
REMARK   64  A    between atoms: _159  and  _161
REMARK   65  A    between atoms: _161  and  _162
REMARK   66  A    between atoms: _161  and  _164
REMARK   67  A    between atoms: _164  and  _165
REMARK   68  A    between atoms: _168  and  _170
REMARK   69  A    between atoms: _170  and  _171
REMARK   70  A    between atoms: _173  and  _175
REMARK   71  A    between atoms: _175  and  _176
REMARK   72  A    between atoms: _175  and  _178
REMARK   73  A    between atoms: _178  and  _179
REMARK   74  A    between atoms: _182  and  _184
REMARK   75  A    between atoms: _184  and  _185
REMARK   76  A    between atoms: _184  and  _187
REMARK   77  A    between atoms: _187  and  _188
REMARK   78  A    between atoms: _188  and  _189
REMARK   79  A    between atoms: _189  and  _190
REMARK   80  A    between atoms: _199  and  _201
REMARK   81  A    between atoms: _201  and  _202
REMARK   82  A    between atoms: _201  and  _204
REMARK   83  A    between atoms: _204  and  _205
REMARK   84  A    between atoms: _208  and  _210
REMARK   85  A    between atoms: _210  and  _211
REMARK   86  A    between atoms: _210  and  _213
REMARK   87  A    between atoms: _213  and  _214
REMARK   88  A    between atoms: _219  and  _221
REMARK   89  A    between atoms: _221  and  _222
REMARK   90  A    between atoms: _224  and  _226
REMARK   91  A    between atoms: _226  and  _227
REMARK   92  A    between atoms: _226  and  _229
REMARK   93  A    between atoms: _229  and  _230
REMARK   94  A    between atoms: _240  and  _242
REMARK   95  A    between atoms: _242  and  _243
REMARK   96  A    between atoms: _242  and  _245
REMARK   97  A    between atoms: _245  and  _246
REMARK   98  A    between atoms: _248  and  _250
REMARK   99  A    between atoms: _250  and  _251
REMARK  100  A    between atoms: _250  and  _253
REMARK  101  A    between atoms: _253  and  _254
REMARK  102  A    between atoms: _257  and  _259
REMARK  103  A    between atoms: _259  and  _260
REMARK  104  A    between atoms: _259  and  _262
REMARK  105  A    between atoms: _265  and  _267
REMARK  106  A    between atoms: _267  and  _268
REMARK  107  A    between atoms: _267  and  _270
REMARK  108  A    between atoms: _270  and  _271
REMARK  109  A    between atoms: _271  and  _272
REMARK  110  A    between atoms: _272  and  _273
REMARK  111  A    between atoms: _273  and  _274
REMARK  112  A    between atoms: _278  and  _280
REMARK  113  A    between atoms: _280  and  _281
REMARK  114  A    between atoms: _280  and  _283
REMARK  115  A    between atoms: _283  and  _284
REMARK  116  A    between atoms: _284  and  _285
REMARK  117  A    between atoms: _287  and  _289
REMARK  118  A    between atoms: _289  and  _290
REMARK  119  A    between atoms: _289  and  _292
REMARK  120  A    between atoms: _292  and  _293
REMARK  121  A    between atoms: _295  and  _297
REMARK  122  A    between atoms: _297  and  _298
REMARK  123  A    between atoms: _300  and  _302
REMARK  124  A    between atoms: _302  and  _303
REMARK  125  A    between atoms: _302  and  _305
REMARK  126  A    between atoms: _305  and  _306
REMARK  127  A    between atoms: _306  and  _441
REMARK  128  A    between atoms: _307  and  _309
REMARK  129  A    between atoms: _309  and  _310
REMARK  130  A    between atoms: _309  and  _312
REMARK  131  A    between atoms: _312  and  _313
REMARK  132  A    between atoms: _313  and  _314
REMARK  133  A    between atoms: _319  and  _321
REMARK  134  A    between atoms: _321  and  _322
REMARK  135  A    between atoms: _324  and  _326
REMARK  136  A    between atoms: _326  and  _327
REMARK  137  A    between atoms: _326  and  _329
REMARK  138  A    between atoms: _329  and  _330
REMARK  139  A    between atoms: _333  and  _335
REMARK  140  A    between atoms: _335  and  _336
REMARK  141  A    between atoms: _335  and  _338
REMARK  142  A    between atoms: _338  and  _339
REMARK  143  A    between atoms: _341  and  _343
REMARK  144  A    between atoms: _343  and  _344
REMARK  145  A    between atoms: _346  and  _348
REMARK  146  A    between atoms: _348  and  _349
REMARK  147  A    between atoms: _351  and  _353
REMARK  148  A    between atoms: _353  and  _354
REMARK  149  A    between atoms: _353  and  _356
REMARK  150  A    between atoms: _359  and  _361
REMARK  151  A    between atoms: _361  and  _362
REMARK  152  A    between atoms: _361  and  _364
REMARK  153  A    between atoms: _364  and  _365
REMARK  154  A    between atoms: _368  and  _370
REMARK  155  A    between atoms: _370  and  _371
REMARK  156  A    between atoms: _370  and  _373
REMARK  157  A    between atoms: _373  and  _374
REMARK  158  A    between atoms: _376  and  _378
REMARK  159  A    between atoms: _378  and  _379
REMARK  160  A    between atoms: _378  and  _381
REMARK  161  A    between atoms: _381  and  _382
REMARK  162  A    between atoms: _388  and  _390
REMARK  163  A    between atoms: _390  and  _391
REMARK  164  A    between atoms: _390  and  _393
REMARK  165  A    between atoms: _396  and  _398
REMARK  166  A    between atoms: _398  and  _399
REMARK  167  A    between atoms: _398  and  _401
REMARK  168  A    between atoms: _401  and  _402
REMARK  169  A    between atoms: _404  and  _406
REMARK  170  A    between atoms: _406  and  _407
REMARK  171  A    between atoms: _406  and  _409
REMARK  172  A    between atoms: _409  and  _410
REMARK  173  A    between atoms: _410  and  _411
REMARK  174  A    between atoms: _411  and  _412
REMARK  175  A    between atoms: _421  and  _423
REMARK  176  A    between atoms: _423  and  _424
REMARK  177  A    between atoms: _423  and  _426
REMARK  178  A    between atoms: _426  and  _427
REMARK  179  A    between atoms: _430  and  _432
REMARK  180  A    between atoms: _432  and  _433
REMARK  181  A    between atoms: _435  and  _437
REMARK  182  A    between atoms: _437  and  _438
REMARK  183  A    between atoms: _437  and  _440
REMARK  184  A    between atoms: _440  and  _441
REMARK  185  A    between atoms: _442  and  _444
REMARK  186  A    between atoms: _444  and  _445
REMARK  187  A    between atoms: _444  and  _447
REMARK  188  A    between atoms: _447  and  _448
REMARK  189  A    between atoms: _453  and  _455
REMARK  190  A    between atoms: _455  and  _456
REMARK  191  A    between atoms: _455  and  _458
REMARK  192  A    between atoms: _461  and  _463
REMARK  193  A    between atoms: _463  and  _464
REMARK  194  A    between atoms: _463  and  _466
REMARK  195  A    between atoms: _466  and  _467
REMARK  196  A    between atoms: _470  and  _472
REMARK  197  A    between atoms: _472  and  _473
REMARK  198  A    between atoms: _472  and  _475
REMARK  199  A    between atoms: _478  and  _480
REMARK  200  A    between atoms: _480  and  _481
REMARK  201  A    between atoms: _480  and  _483
REMARK  202  A    between atoms: _483  and  _484
REMARK  203  A    between atoms: _490  and  _492
REMARK  204  A    between atoms: _492  and  _493
REMARK  205  A    between atoms: _492  and  _495
REMARK  206  A    between atoms: _495  and  _496
REMARK                            x       y       z     vdW  Elec       q    Type
REMARK                         _______ _______ _______ _____ _____    ______ ____
ROOT
ATOM      1  CG  TRP A   1      31.306  22.452  45.874  0.00  0.00    -0.002 A 
ATOM      2  CD1 TRP A   1      31.641  23.789  45.945  0.00  0.00    +0.068 A 
ATOM      3  NE1 TRP A   1      32.262  24.051  44.808  0.00  0.00    -0.352 N 
ATOM      4  HE1 TRP A   1      32.649  24.981  44.548  0.00  0.00    +0.166 HD
ATOM      5  CE2 TRP A   1      32.326  22.956  44.034  0.00  0.00    +0.056 A 
ATOM      6  CZ2 TRP A   1      32.881  22.776  42.753  0.00  0.00    +0.017 A 
ATOM      7  CH2 TRP A   1      32.782  21.503  42.166  0.00  0.00    +0.001 A 
ATOM      8  CZ3 TRP A   1      32.149  20.444  42.847  0.00  0.00    +0.000 A 
ATOM      9  CE3 TRP A   1      31.605  20.616  44.123  0.00  0.00    +0.001 A 
ATOM     10  CD2 TRP A   1      31.699  21.873  44.701  0.00  0.00    +0.013 A 
ENDROOT
BRANCH   1  11
ATOM     11  CB  TRP A   1      30.638  21.704  47.014  0.00  0.00    +0.053 C 
BRANCH  11  12
ATOM     12  CA  TRP A   1      29.178  21.425  46.843  0.00  0.00    +0.137 C 
BRANCH  12  13
ATOM     13  N   TRP A   1      28.438  22.590  47.283  0.00  0.00    -0.239 NA
ATOM     14  H   TRP A   1      28.745  23.090  48.141  0.00  0.00    +0.142 HD
ENDBRANCH  12  13
BRANCH  12  15
ATOM     15  C   TRP A   1      28.825  20.158  47.577  0.00  0.00    +0.224 C 
ATOM     16  O   TRP A   1      29.259  19.074  47.206  0.00  0.00    -0.287 OA
ENDBRANCH  12  15
ENDBRANCH  11  12
ENDBRANCH   1  11
TORSDOF 4
REMARK  Name = ../refined-set-2016/1bma/1bma_pocket.pdb
REMARK  206 active torsions:
REMARK  status: ('A' for Active; 'I' for Inactive)
REMARK    1  A    between atoms: _1  and  _5
REMARK    2  A    between atoms: _5  and  _6
REMARK    3  A    between atoms: _5  and  _8
REMARK    4  A    between atoms: _11  and  _13
REMARK    5  A    between atoms: _13  and  _14
REMARK    6  A    between atoms: _13  and  _16
REMARK    7  A    between atoms: _16  and  _17
REMARK    8  A    between atoms: _20  and  _22
REMARK    9  A    between atoms: _22  and  _23
REMARK   10  A    between atoms: _22  and  _25
REMARK   11  A    between atoms: _25  and  _26
REMARK   12  A    between atoms: _26  and  _61
REMARK   13  A    between atoms: _27  and  _29
REMARK   14  A    between atoms: _29  and  _30
REMARK   15  A    between atoms: _32  and  _34
REMARK   16  A    between atoms: _34  and  _35
REMARK   17  A    between atoms: _38  and  _40
REMARK   18  A    between atoms: _40  and  _41
REMARK   19  A    between atoms: _44  and  _46
REMARK   20  A    between atoms: _46  and  _47
REMARK   21  A    between atoms: _46  and  _49
REMARK   22  A    between atoms: _49  and  _50
REMARK   23  A    between atoms: _55  and  _57
REMARK   24  A    between atoms: _57  and  _58
REMARK   25  A    between atoms: _57  and  _60
REMARK   26  A    between atoms: _60  and  _61
REMARK   27  A    between atoms: _62  and  _64
REMARK   28  A    between atoms: _64  and  _65
REMARK   29  A    between atoms: _64  and  _67
REMARK   30  A    between atoms: _67  and  _68
REMARK   31  A    between atoms: _71  and  _73
REMARK   32  A    between atoms: _73  and  _74
REMARK   33  A    between atoms: _73  and  _76
REMARK   34  A    between atoms: _76  and  _77
REMARK   35  A    between atoms: _87  and  _89
REMARK   36  A    between atoms: _89  and  _90
REMARK   37  A    between atoms: _89  and  _92
REMARK   38  A    between atoms: _92  and  _93
REMARK   39  A    between atoms: _98  and  _100
REMARK   40  A    between atoms: _100  and  _101
REMARK   41  A    between atoms: _100  and  _103
REMARK   42  A    between atoms: _103  and  _104
REMARK   43  A    between atoms: _107  and  _109
REMARK   44  A    between atoms: _109  and  _110
REMARK   45  A    between atoms: _109  and  _112
REMARK   46  A    between atoms: _112  and  _113
REMARK   47  A    between atoms: _116  and  _118
REMARK   48  A    between atoms: _118  and  _119
REMARK   49  A    between atoms: _118  and  _121
REMARK   50  A    between atoms: _121  and  _122
REMARK   51  A    between atoms: _125  and  _127
REMARK   52  A    between atoms: _127  and  _128
REMARK   53  A    between atoms: _127  and  _130
REMARK   54  A    between atoms: _133  and  _135
REMARK   55  A    between atoms: _135  and  _136
REMARK   56  A    between atoms: _139  and  _141
REMARK   57  A    between atoms: _141  and  _142
REMARK   58  A    between atoms: _145  and  _147
REMARK   59  A    between atoms: _147  and  _148
REMARK   60  A    between atoms: _150  and  _152
REMARK   61  A    between atoms: _152  and  _153
REMARK   62  A    between atoms: _152  and  _155
REMARK   63  A    between atoms: _155  and  _156
REMARK   64  A    between atoms: _159  and  _161
REMARK   65  A    between atoms: _161  and  _162
REMARK   66  A    between atoms: _161  and  _164
REMARK   67  A    between atoms: _164  and  _165
REMARK   68  A    between atoms: _168  and  _170
REMARK   69  A    between atoms: _170  and  _171
REMARK   70  A    between atoms: _173  and  _175
REMARK   71  A    between atoms: _175  and  _176
REMARK   72  A    between atoms: _175  and  _178
REMARK   73  A    between atoms: _178  and  _179
REMARK   74  A    between atoms: _182  and  _184
REMARK   75  A    between atoms: _184  and  _185
REMARK   76  A    between atoms: _184  and  _187
REMARK   77  A    between atoms: _187  and  _188
REMARK   78  A    between atoms: _188  and  _189
REMARK   79  A    between atoms: _189  and  _190
REMARK   80  A    between atoms: _199  and  _201
REMARK   81  A    between atoms: _201  and  _202
REMARK   82  A    between atoms: _201  and  _204
REMARK   83  A    between atoms: _204  and  _205
REMARK   84  A    between atoms: _208  and  _210
REMARK   85  A    between atoms: _210  and  _211
REMARK   86  A    between atoms: _210  and  _213
REMARK   87  A    between atoms: _213  and  _214
REMARK   88  A    between atoms: _219  and  _221
REMARK   89  A    between atoms: _221  and  _222
REMARK   90  A    between atoms: _224  and  _226
REMARK   91  A    between atoms: _226  and  _227
REMARK   92  A    between atoms: _226  and  _229
REMARK   93  A    between atoms: _229  and  _230
REMARK   94  A    between atoms: _240  and  _242
REMARK   95  A    between atoms: _242  and  _243
REMARK   96  A    between atoms: _242  and  _245
REMARK   97  A    between atoms: _245  and  _246
REMARK   98  A    between atoms: _248  and  _250
REMARK   99  A    between atoms: _250  and  _251
REMARK  100  A    between atoms: _250  and  _253
REMARK  101  A    between atoms: _253  and  _254
REMARK  102  A    between atoms: _257  and  _259
REMARK  103  A    between atoms: _259  and  _260
REMARK  104  A    between atoms: _259  and  _262
REMARK  105  A    between atoms: _265  and  _267
REMARK  106  A    between atoms: _267  and  _268
REMARK  107  A    between atoms: _267  and  _270
REMARK  108  A    between atoms: _270  and  _271
REMARK  109  A    between atoms: _271  and  _272
REMARK  110  A    between atoms: _272  and  _273
REMARK  111  A    between atoms: _273  and  _274
REMARK  112  A    between atoms: _278  and  _280
REMARK  113  A    between atoms: _280  and  _281
REMARK  114  A    between atoms: _280  and  _283
REMARK  115  A    between atoms: _283  and  _284
REMARK  116  A    between atoms: _284  and  _285
REMARK  117  A    between atoms: _287  and  _289
REMARK  118  A    between atoms: _289  and  _290
REMARK  119  A    between atoms: _289  and  _292
REMARK  120  A    between atoms: _292  and  _293
REMARK  121  A    between atoms: _295  and  _297
REMARK  122  A    between atoms: _297  and  _298
REMARK  123  A    between atoms: _300  and  _302
REMARK  124  A    between atoms: _302  and  _303
REMARK  125  A    between atoms: _302  and  _305
REMARK  126  A    between atoms: _305  and  _306
REMARK  127  A    between atoms: _306  and  _441
REMARK  128  A    between atoms: _307  and  _309
REMARK  129  A    between atoms: _309  and  _310
REMARK  130  A    between atoms: _309  and  _312
REMARK  131  A    between atoms: _312  and  _313
REMARK  132  A    between atoms: _313  and  _314
REMARK  133  A    between atoms: _319  and  _321
REMARK  134  A    between atoms: _321  and  _322
REMARK  135  A    between atoms: _324  and  _326
REMARK  136  A    between atoms: _326  and  _327
REMARK  137  A    between atoms: _326  and  _329
REMARK  138  A    between atoms: _329  and  _330
REMARK  139  A    between atoms: _333  and  _335
REMARK  140  A    between atoms: _335  and  _336
REMARK  141  A    between atoms: _335  and  _338
REMARK  142  A    between atoms: _338  and  _339
REMARK  143  A    between atoms: _341  and  _343
REMARK  144  A    between atoms: _343  and  _344
REMARK  145  A    between atoms: _346  and  _348
REMARK  146  A    between atoms: _348  and  _349
REMARK  147  A    between atoms: _351  and  _353
REMARK  148  A    between atoms: _353  and  _354
REMARK  149  A    between atoms: _353  and  _356
REMARK  150  A    between atoms: _359  and  _361
REMARK  151  A    between atoms: _361  and  _362
REMARK  152  A    between atoms: _361  and  _364
REMARK  153  A    between atoms: _364  and  _365
REMARK  154  A    between atoms: _368  and  _370
REMARK  155  A    between atoms: _370  and  _371
REMARK  156  A    between atoms: _370  and  _373
REMARK  157  A    between atoms: _373  and  _374
REMARK  158  A    between atoms: _376  and  _378
REMARK  159  A    between atoms: _378  and  _379
REMARK  160  A    between atoms: _378  and  _381
REMARK  161  A    between atoms: _381  and  _382
REMARK  162  A    between atoms: _388  and  _390
REMARK  163  A    between atoms: _390  and  _391
REMARK  164  A    between atoms: _390  and  _393
REMARK  165  A    between atoms: _396  and  _398
REMARK  166  A    between atoms: _398  and  _399
REMARK  167  A    between atoms: _398  and  _401
REMARK  168  A    between atoms: _401  and  _402
REMARK  169  A    between atoms: _404  and  _406
REMARK  170  A    between atoms: _406  and  _407
REMARK  171  A    between atoms: _406  and  _409
REMARK  172  A    between atoms: _409  and  _410
REMARK  173  A    between atoms: _410  and  _411
REMARK  174  A    between atoms: _411  and  _412
REMARK  175  A    between atoms: _421  and  _423
REMARK  176  A    between atoms: _423  and  _424
REMARK  177  A    between atoms: _423  and  _426
REMARK  178  A    between atoms: _426  and  _427
REMARK  179  A    between atoms: _430  and  _432
REMARK  180  A    between atoms: _432  and  _433
REMARK  181  A    between atoms: _435  and  _437
REMARK  182  A    between atoms: _437  and  _438
REMARK  183  A    between atoms: _437  and  _440
REMARK  184  A    between atoms: _440  and  _441
REMARK  185  A    between atoms: _442  and  _444
REMARK  186  A    between atoms: _444  and  _445
REMARK  187  A    between atoms: _444  and  _447
REMARK  188  A    between atoms: _447  and  _448
REMARK  189  A    between atoms: _453  and  _455
REMARK  190  A    between atoms: _455  and  _456
REMARK  191  A    between atoms: _455  and  _458
REMARK  192  A    between atoms: _461  and  _463
REMARK  193  A    between atoms: _463  and  _464
REMARK  194  A    between atoms: _463  and  _466
REMARK  195  A    between atoms: _466  and  _467
REMARK  196  A    between atoms: _470  and  _472
REMARK  197  A    between atoms: _472  and  _473
REMARK  198  A    between atoms: _472  and  _475
REMARK  199  A    between atoms: _478  and  _480
REMARK  200  A    between atoms: _480  and  _481
REMARK  201  A    between atoms: _480  and  _483
REMARK  202  A    between atoms: _483  and  _484
REMARK  203  A    between atoms: _490  and  _492
REMARK  204  A    between atoms: _492  and  _493
REMARK  205  A    between atoms: _492  and  _495
REMARK  206  A    between atoms: _495  and  _496
REMARK                            x       y       z     vdW  Elec       q    Type
REMARK                         _______ _______ _______ _____ _____    ______ ____
ROOT
ATOM      1  C   THR A   2      33.515  17.765  48.670  0.00  0.00    +0.243 C 
ATOM      2  N   VAL A   3      33.120  18.855  49.356  0.00  0.00    -0.297 N 
ATOM      3  H   VAL A   3      32.118  19.128  49.406  0.00  0.00    +0.150 HD
ATOM      4  O   THR A   2      34.690  17.421  48.625  0.00  0.00    -0.273 OA
ENDROOT
BRANCH   2   5
ATOM      5  CA  VAL A   3      34.165  19.646  50.033  0.00  0.00    +0.149 C 
BRANCH   5   6
ATOM      6  C   VAL A   3      34.349  19.158  51.448  0.00  0.00    +0.241 C 
ATOM      7  O   VAL A   3      33.427  18.725  52.124  0.00  0.00    -0.273 OA
ATOM      8  N   LYS A   4      35.610  19.128  51.798  0.00  0.00    -0.298 N 
ATOM      9  H   LYS A   4      36.327  19.420  51.103  0.00  0.00    +0.150 HD
BRANCH   8  10
ATOM     10  CA  LYS A   4      36.046  18.708  53.104  0.00  0.00    +0.137 C 
BRANCH  10  11
ATOM     11  C   LYS A   4      36.480  19.966  53.849  0.00  0.00    +0.227 C 
ATOM     12  O   LYS A   4      36.728  21.024  53.275  0.00  0.00    -0.286 OA
ENDBRANCH  10  11
BRANCH  10  13
ATOM     13  CB  LYS A   4      37.248  17.747  53.006  0.00  0.00    +0.028 C 
BRANCH  13  14
ATOM     14  CG  LYS A   4      37.052  16.560  52.054  0.00  0.00    -0.000 C 
BRANCH  14  15
ATOM     15  CD  LYS A   4      35.784  15.804  52.402  0.00  0.00    -0.024 C 
BRANCH  15  16
ATOM     16  CE  LYS A   4      35.466  14.618  51.488  0.00  0.00    -0.086 C 
BRANCH  16  17
ATOM     17  NZ  LYS A   4      35.004  15.001  50.158  0.00  0.00    +0.380 N 
ATOM     18  HZ1 LYS A   4      34.135  15.565  50.244  0.00  0.00    -0.089 HD
ATOM     19  HZ2 LYS A   4      35.739  15.565  49.686  0.00  0.00    -0.089 HD
ATOM     20  HZ3 LYS A   4      34.810  14.145  49.600  0.00  0.00    -0.089 HD
ENDBRANCH  16  17
ENDBRANCH  15  16
ENDBRANCH  14  15
ENDBRANCH  13  14
ENDBRANCH  10  13
ENDBRANCH   8  10
ENDBRANCH   5   6
BRANCH   5  21
ATOM     21  CB  VAL A   3      33.888  21.174  50.102  0.00  0.00    +0.027 C 
ATOM     22  CG2 VAL A   3      32.628  21.552  50.801  0.00  0.00    +0.002 C 
ATOM     23  CG1 VAL A   3      33.857  21.630  48.660  0.00  0.00    +0.002 C 
ENDBRANCH   5  21
ENDBRANCH   2   5
BRANCH   1  24
ATOM     24  CA  THR A   2      32.539  16.864  47.951  0.00  0.00    +0.176 C 
BRANCH  24  27
ATOM     25  C   SER A   1      31.235  16.299  49.891  0.00  0.00    +0.241 C 
ATOM     26  O   SER A   1      32.232  15.824  50.432  0.00  0.00    -0.274 OA
ATOM     27  N   THR A   2      31.291  16.821  48.682  0.00  0.00    -0.295 N 
ATOM     28  H   THR A   2      30.428  17.207  48.248  0.00  0.00    +0.150 HD
BRANCH  25  29
ATOM     29  CA  SER A   1      29.881  16.222  50.565  0.00  0.00    +0.174 C 
BRANCH  29  30
ATOM     30  N   SER A   1      28.839  17.145  50.120  0.00  0.00    -0.236 NA
ATOM     31  H   SER A   1      27.939  16.730  49.806  0.00  0.00    +0.142 HD
ENDBRANCH  29  30
BRANCH  29  32
ATOM     32  CB  SER A   1      29.466  14.766  50.390  0.00  0.00    +0.163 C 
BRANCH  32  33
ATOM     33  OG  SER A   1      28.769  14.312  51.523  0.00  0.00    -0.380 OA
ATOM     34  H   SER A   1      28.508  13.366  51.391  0.00  0.00    +0.211 HD
ENDBRANCH  32  33
ENDBRANCH  29  32
ENDBRANCH  25  29
ENDBRANCH  24  27
BRANCH  24  35
ATOM     35  CB  THR A   2      32.200  17.336  46.539  0.00  0.00    +0.137 C 
ATOM     36  CG2 THR A   2      33.375  17.574  45.620  0.00  0.00    +0.034 C 
BRANCH  35  37
ATOM     37  OG1 THR A   2      31.377  16.291  46.046  0.00  0.00    -0.382 OA
ATOM     38  HG1 THR A   2      31.097  16.502  45.120  0.00  0.00    +0.210 HD
ENDBRANCH  35  37
ENDBRANCH  24  35
ENDBRANCH   1  24
TORSDOF 18
REMARK  Name = ../refined-set-2016/1bma/1bma_pocket.pdb
REMARK  206 active torsions:
REMARK  status: ('A' for Active; 'I' for Inactive)
REMARK    1  A    between atoms: _1  and  _5
REMARK    2  A    between atoms: _5  and  _6
REMARK    3  A    between atoms: _5  and  _8
REMARK    4  A    between atoms: _11  and  _13
REMARK    5  A    between atoms: _13  and  _14
REMARK    6  A    between atoms: _13  and  _16
REMARK    7  A    between atoms: _16  and  _17
REMARK    8  A    between atoms: _20  and  _22
REMARK    9  A    between atoms: _22  and  _23
REMARK   10  A    between atoms: _22  and  _25
REMARK   11  A    between atoms: _25  and  _26
REMARK   12  A    between atoms: _26  and  _61
REMARK   13  A    between atoms: _27  and  _29
REMARK   14  A    between atoms: _29  and  _30
REMARK   15  A    between atoms: _32  and  _34
REMARK   16  A    between atoms: _34  and  _35
REMARK   17  A    between atoms: _38  and  _40
REMARK   18  A    between atoms: _40  and  _41
REMARK   19  A    between atoms: _44  and  _46
REMARK   20  A    between atoms: _46  and  _47
REMARK   21  A    between atoms: _46  and  _49
REMARK   22  A    between atoms: _49  and  _50
REMARK   23  A    between atoms: _55  and  _57
REMARK   24  A    between atoms: _57  and  _58
REMARK   25  A    between atoms: _57  and  _60
REMARK   26  A    between atoms: _60  and  _61
REMARK   27  A    between atoms: _62  and  _64
REMARK   28  A    between atoms: _64  and  _65
REMARK   29  A    between atoms: _64  and  _67
REMARK   30  A    between atoms: _67  and  _68
REMARK   31  A    between atoms: _71  and  _73
REMARK   32  A    between atoms: _73  and  _74
REMARK   33  A    between atoms: _73  and  _76
REMARK   34  A    between atoms: _76  and  _77
REMARK   35  A    between atoms: _87  and  _89
REMARK   36  A    between atoms: _89  and  _90
REMARK   37  A    between atoms: _89  and  _92
REMARK   38  A    between atoms: _92  and  _93
REMARK   39  A    between atoms: _98  and  _100
REMARK   40  A    between atoms: _100  and  _101
REMARK   41  A    between atoms: _100  and  _103
REMARK   42  A    between atoms: _103  and  _104
REMARK   43  A    between atoms: _107  and  _109
REMARK   44  A    between atoms: _109  and  _110
REMARK   45  A    between atoms: _109  and  _112
REMARK   46  A    between atoms: _112  and  _113
REMARK   47  A    between atoms: _116  and  _118
REMARK   48  A    between atoms: _118  and  _119
REMARK   49  A    between atoms: _118  and  _121
REMARK   50  A    between atoms: _121  and  _122
REMARK   51  A    between atoms: _125  and  _127
REMARK   52  A    between atoms: _127  and  _128
REMARK   53  A    between atoms: _127  and  _130
REMARK   54  A    between atoms: _133  and  _135
REMARK   55  A    between atoms: _135  and  _136
REMARK   56  A    between atoms: _139  and  _141
REMARK   57  A    between atoms: _141  and  _142
REMARK   58  A    between atoms: _145  and  _147
REMARK   59  A    between atoms: _147  and  _148
REMARK   60  A    between atoms: _150  and  _152
REMARK   61  A    between atoms: _152  and  _153
REMARK   62  A    between atoms: _152  and  _155
REMARK   63  A    between atoms: _155  and  _156
REMARK   64  A    between atoms: _159  and  _161
REMARK   65  A    between atoms: _161  and  _162
REMARK   66  A    between atoms: _161  and  _164
REMARK   67  A    between atoms: _164  and  _165
REMARK   68  A    between atoms: _168  and  _170
REMARK   69  A    between atoms: _170  and  _171
REMARK   70  A    between atoms: _173  and  _175
REMARK   71  A    between atoms: _175  and  _176
REMARK   72  A    between atoms: _175  and  _178
REMARK   73  A    between atoms: _178  and  _179
REMARK   74  A    between atoms: _182  and  _184
REMARK   75  A    between atoms: _184  and  _185
REMARK   76  A    between atoms: _184  and  _187
REMARK   77  A    between atoms: _187  and  _188
REMARK   78  A    between atoms: _188  and  _189
REMARK   79  A    between atoms: _189  and  _190
REMARK   80  A    between atoms: _199  and  _201
REMARK   81  A    between atoms: _201  and  _202
REMARK   82  A    between atoms: _201  and  _204
REMARK   83  A    between atoms: _204  and  _205
REMARK   84  A    between atoms: _208  and  _210
REMARK   85  A    between atoms: _210  and  _211
REMARK   86  A    between atoms: _210  and  _213
REMARK   87  A    between atoms: _213  and  _214
REMARK   88  A    between atoms: _219  and  _221
REMARK   89  A    between atoms: _221  and  _222
REMARK   90  A    between atoms: _224  and  _226
REMARK   91  A    between atoms: _226  and  _227
REMARK   92  A    between atoms: _226  and  _229
REMARK   93  A    between atoms: _229  and  _230
REMARK   94  A    between atoms: _240  and  _242
REMARK   95  A    between atoms: _242  and  _243
REMARK   96  A    between atoms: _242  and  _245
REMARK   97  A    between atoms: _245  and  _246
REMARK   98  A    between atoms: _248  and  _250
REMARK   99  A    between atoms: _250  and  _251
REMARK  100  A    between atoms: _250  and  _253
REMARK  101  A    between atoms: _253  and  _254
REMARK  102  A    between atoms: _257  and  _259
REMARK  103  A    between atoms: _259  and  _260
REMARK  104  A    between atoms: _259  and  _262
REMARK  105  A    between atoms: _265  and  _267
REMARK  106  A    between atoms: _267  and  _268
REMARK  107  A    between atoms: _267  and  _270
REMARK  108  A    between atoms: _270  and  _271
REMARK  109  A    between atoms: _271  and  _272
REMARK  110  A    between atoms: _272  and  _273
REMARK  111  A    between atoms: _273  and  _274
REMARK  112  A    between atoms: _278  and  _280
REMARK  113  A    between atoms: _280  and  _281
REMARK  114  A    between atoms: _280  and  _283
REMARK  115  A    between atoms: _283  and  _284
REMARK  116  A    between atoms: _284  and  _285
REMARK  117  A    between atoms: _287  and  _289
REMARK  118  A    between atoms: _289  and  _290
REMARK  119  A    between atoms: _289  and  _292
REMARK  120  A    between atoms: _292  and  _293
REMARK  121  A    between atoms: _295  and  _297
REMARK  122  A    between atoms: _297  and  _298
REMARK  123  A    between atoms: _300  and  _302
REMARK  124  A    between atoms: _302  and  _303
REMARK  125  A    between atoms: _302  and  _305
REMARK  126  A    between atoms: _305  and  _306
REMARK  127  A    between atoms: _306  and  _441
REMARK  128  A    between atoms: _307  and  _309
REMARK  129  A    between atoms: _309  and  _310
REMARK  130  A    between atoms: _309  and  _312
REMARK  131  A    between atoms: _312  and  _313
REMARK  132  A    between atoms: _313  and  _314
REMARK  133  A    between atoms: _319  and  _321
REMARK  134  A    between atoms: _321  and  _322
REMARK  135  A    between atoms: _324  and  _326
REMARK  136  A    between atoms: _326  and  _327
REMARK  137  A    between atoms: _326  and  _329
REMARK  138  A    between atoms: _329  and  _330
REMARK  139  A    between atoms: _333  and  _335
REMARK  140  A    between atoms: _335  and  _336
REMARK  141  A    between atoms: _335  and  _338
REMARK  142  A    between atoms: _338  and  _339
REMARK  143  A    between atoms: _341  and  _343
REMARK  144  A    between atoms: _343  and  _344
REMARK  145  A    between atoms: _346  and  _348
REMARK  146  A    between atoms: _348  and  _349
REMARK  147  A    between atoms: _351  and  _353
REMARK  148  A    between atoms: _353  and  _354
REMARK  149  A    between atoms: _353  and  _356
REMARK  150  A    between atoms: _359  and  _361
REMARK  151  A    between atoms: _361  and  _362
REMARK  152  A    between atoms: _361  and  _364
REMARK  153  A    between atoms: _364  and  _365
REMARK  154  A    between atoms: _368  and  _370
REMARK  155  A    between atoms: _370  and  _371
REMARK  156  A    between atoms: _370  and  _373
REMARK  157  A    between atoms: _373  and  _374
REMARK  158  A    between atoms: _376  and  _378
REMARK  159  A    between atoms: _378  and  _379
REMARK  160  A    between atoms: _378  and  _381
REMARK  161  A    between atoms: _381  and  _382
REMARK  162  A    between atoms: _388  and  _390
REMARK  163  A    between atoms: _390  and  _391
REMARK  164  A    between atoms: _390  and  _393
REMARK  165  A    between atoms: _396  and  _398
REMARK  166  A    between atoms: _398  and  _399
REMARK  167  A    between atoms: _398  and  _401
REMARK  168  A    between atoms: _401  and  _402
REMARK  169  A    between atoms: _404  and  _406
REMARK  170  A    between atoms: _406  and  _407
REMARK  171  A    between atoms: _406  and  _409
REMARK  172  A    between atoms: _409  and  _410
REMARK  173  A    between atoms: _410  and  _411
REMARK  174  A    between atoms: _411  and  _412
REMARK  175  A    between atoms: _421  and  _423
REMARK  176  A    between atoms: _423  and  _424
REMARK  177  A    between atoms: _423  and  _426
REMARK  178  A    between atoms: _426  and  _427
REMARK  179  A    between atoms: _430  and  _432
REMARK  180  A    between atoms: _432  and  _433
REMARK  181  A    between atoms: _435  and  _437
REMARK  182  A    between atoms: _437  and  _438
REMARK  183  A    between atoms: _437  and  _440
REMARK  184  A    between atoms: _440  and  _441
REMARK  185  A    between atoms: _442  and  _444
REMARK  186  A    between atoms: _444  and  _445
REMARK  187  A    between atoms: _444  and  _447
REMARK  188  A    between atoms: _447  and  _448
REMARK  189  A    between atoms: _453  and  _455
REMARK  190  A    between atoms: _455  and  _456
REMARK  191  A    between atoms: _455  and  _458
REMARK  192  A    between atoms: _461  and  _463
REMARK  193  A    between atoms: _463  and  _464
REMARK  194  A    between atoms: _463  and  _466
REMARK  195  A    between atoms: _466  and  _467
REMARK  196  A    between atoms: _470  and  _472
REMARK  197  A    between atoms: _472  and  _473
REMARK  198  A    between atoms: _472  and  _475
REMARK  199  A    between atoms: _478  and  _480
REMARK  200  A    between atoms: _480  and  _481
REMARK  201  A    between atoms: _480  and  _483
REMARK  202  A    between atoms: _483  and  _484
REMARK  203  A    between atoms: _490  and  _492
REMARK  204  A    between atoms: _492  and  _493
REMARK  205  A    between atoms: _492  and  _495
REMARK  206  A    between atoms: _495  and  _496
REMARK                            x       y       z     vdW  Elec       q    Type
REMARK                         _______ _______ _______ _____ _____    ______ ____
ROOT
ATOM      1  CA  MET A   1      39.585  22.867  51.804  0.00  0.00    +0.134 C 
ENDROOT
BRANCH   1   2
ATOM      2  N   MET A   1      39.692  22.023  52.979  0.00  0.00    -0.239 NA
ATOM      3  H   MET A   1      38.832  21.867  53.543  0.00  0.00    +0.142 HD
ENDBRANCH   1   2
BRANCH   1   4
ATOM      4  C   MET A   1      38.993  24.237  52.154  0.00  0.00    +0.224 C 
ATOM      5  O   MET A   1      38.270  24.386  53.138  0.00  0.00    -0.287 OA
ENDBRANCH   1   4
BRANCH   1   6
ATOM      6  CB  MET A   1      38.671  22.216  50.791  0.00  0.00    +0.037 C 
BRANCH   6   7
ATOM      7  CG  MET A   1      39.204  20.911  50.205  0.00  0.00    +0.059 C 
BRANCH   7   8
ATOM      8  SD  MET A   1      37.858  20.000  49.438  0.00  0.00    -0.139 S 
ATOM      9  CE  MET A   1      38.604  18.454  49.020  0.00  0.00    +0.069 C 
ENDBRANCH   7   8
ENDBRANCH   6   7
ENDBRANCH   1   6
TORSDOF 5
REMARK  Name = ../refined-set-2016/1bma/1bma_pocket.pdb
REMARK  206 active torsions:
REMARK  status: ('A' for Active; 'I' for Inactive)
REMARK    1  A    between atoms: _1  and  _5
REMARK    2  A    between atoms: _5  and  _6
REMARK    3  A    between atoms: _5  and  _8
REMARK    4  A    between atoms: _11  and  _13
REMARK    5  A    between atoms: _13  and  _14
REMARK    6  A    between atoms: _13  and  _16
REMARK    7  A    between atoms: _16  and  _17
REMARK    8  A    between atoms: _20  and  _22
REMARK    9  A    between atoms: _22  and  _23
REMARK   10  A    between atoms: _22  and  _25
REMARK   11  A    between atoms: _25  and  _26
REMARK   12  A    between atoms: _26  and  _61
REMARK   13  A    between atoms: _27  and  _29
REMARK   14  A    between atoms: _29  and  _30
REMARK   15  A    between atoms: _32  and  _34
REMARK   16  A    between atoms: _34  and  _35
REMARK   17  A    between atoms: _38  and  _40
REMARK   18  A    between atoms: _40  and  _41
REMARK   19  A    between atoms: _44  and  _46
REMARK   20  A    between atoms: _46  and  _47
REMARK   21  A    between atoms: _46  and  _49
REMARK   22  A    between atoms: _49  and  _50
REMARK   23  A    between atoms: _55  and  _57
REMARK   24  A    between atoms: _57  and  _58
REMARK   25  A    between atoms: _57  and  _60
REMARK   26  A    between atoms: _60  and  _61
REMARK   27  A    between atoms: _62  and  _64
REMARK   28  A    between atoms: _64  and  _65
REMARK   29  A    between atoms: _64  and  _67
REMARK   30  A    between atoms: _67  and  _68
REMARK   31  A    between atoms: _71  and  _73
REMARK   32  A    between atoms: _73  and  _74
REMARK   33  A    between atoms: _73  and  _76
REMARK   34  A    between atoms: _76  and  _77
REMARK   35  A    between atoms: _87  and  _89
REMARK   36  A    between atoms: _89  and  _90
REMARK   37  A    between atoms: _89  and  _92
REMARK   38  A    between atoms: _92  and  _93
REMARK   39  A    between atoms: _98  and  _100
REMARK   40  A    between atoms: _100  and  _101
REMARK   41  A    between atoms: _100  and  _103
REMARK   42  A    between atoms: _103  and  _104
REMARK   43  A    between atoms: _107  and  _109
REMARK   44  A    between atoms: _109  and  _110
REMARK   45  A    between atoms: _109  and  _112
REMARK   46  A    between atoms: _112  and  _113
REMARK   47  A    between atoms: _116  and  _118
REMARK   48  A    between atoms: _118  and  _119
REMARK   49  A    between atoms: _118  and  _121
REMARK   50  A    between atoms: _121  and  _122
REMARK   51  A    between atoms: _125  and  _127
REMARK   52  A    between atoms: _127  and  _128
REMARK   53  A    between atoms: _127  and  _130
REMARK   54  A    between atoms: _133  and  _135
REMARK   55  A    between atoms: _135  and  _136
REMARK   56  A    between atoms: _139  and  _141
REMARK   57  A    between atoms: _141  and  _142
REMARK   58  A    between atoms: _145  and  _147
REMARK   59  A    between atoms: _147  and  _148
REMARK   60  A    between atoms: _150  and  _152
REMARK   61  A    between atoms: _152  and  _153
REMARK   62  A    between atoms: _152  and  _155
REMARK   63  A    between atoms: _155  and  _156
REMARK   64  A    between atoms: _159  and  _161
REMARK   65  A    between atoms: _161  and  _162
REMARK   66  A    between atoms: _161  and  _164
REMARK   67  A    between atoms: _164  and  _165
REMARK   68  A    between atoms: _168  and  _170
REMARK   69  A    between atoms: _170  and  _171
REMARK   70  A    between atoms: _173  and  _175
REMARK   71  A    between atoms: _175  and  _176
REMARK   72  A    between atoms: _175  and  _178
REMARK   73  A    between atoms: _178  and  _179
REMARK   74  A    between atoms: _182  and  _184
REMARK   75  A    between atoms: _184  and  _185
REMARK   76  A    between atoms: _184  and  _187
REMARK   77  A    between atoms: _187  and  _188
REMARK   78  A    between atoms: _188  and  _189
REMARK   79  A    between atoms: _189  and  _190
REMARK   80  A    between atoms: _199  and  _201
REMARK   81  A    between atoms: _201  and  _202
REMARK   82  A    between atoms: _201  and  _204
REMARK   83  A    between atoms: _204  and  _205
REMARK   84  A    between atoms: _208  and  _210
REMARK   85  A    between atoms: _210  and  _211
REMARK   86  A    between atoms: _210  and  _213
REMARK   87  A    between atoms: _213  and  _214
REMARK   88  A    between atoms: _219  and  _221
REMARK   89  A    between atoms: _221  and  _222
REMARK   90  A    between atoms: _224  and  _226
REMARK   91  A    between atoms: _226  and  _227
REMARK   92  A    between atoms: _226  and  _229
REMARK   93  A    between atoms: _229  and  _230
REMARK   94  A    between atoms: _240  and  _242
REMARK   95  A    between atoms: _242  and  _243
REMARK   96  A    between atoms: _242  and  _245
REMARK   97  A    between atoms: _245  and  _246
REMARK   98  A    between atoms: _248  and  _250
REMARK   99  A    between atoms: _250  and  _251
REMARK  100  A    between atoms: _250  and  _253
REMARK  101  A    between atoms: _253  and  _254
REMARK  102  A    between atoms: _257  and  _259
REMARK  103  A    between atoms: _259  and  _260
REMARK  104  A    between atoms: _259  and  _262
REMARK  105  A    between atoms: _265  and  _267
REMARK  106  A    between atoms: _267  and  _268
REMARK  107  A    between atoms: _267  and  _270
REMARK  108  A    between atoms: _270  and  _271
REMARK  109  A    between atoms: _271  and  _272
REMARK  110  A    between atoms: _272  and  _273
REMARK  111  A    between atoms: _273  and  _274
REMARK  112  A    between atoms: _278  and  _280
REMARK  113  A    between atoms: _280  and  _281
REMARK  114  A    between atoms: _280  and  _283
REMARK  115  A    between atoms: _283  and  _284
REMARK  116  A    between atoms: _284  and  _285
REMARK  117  A    between atoms: _287  and  _289
REMARK  118  A    between atoms: _289  and  _290
REMARK  119  A    between atoms: _289  and  _292
REMARK  120  A    between atoms: _292  and  _293
REMARK  121  A    between atoms: _295  and  _297
REMARK  122  A    between atoms: _297  and  _298
REMARK  123  A    between atoms: _300  and  _302
REMARK  124  A    between atoms: _302  and  _303
REMARK  125  A    between atoms: _302  and  _305
REMARK  126  A    between atoms: _305  and  _306
REMARK  127  A    between atoms: _306  and  _441
REMARK  128  A    between atoms: _307  and  _309
REMARK  129  A    between atoms: _309  and  _310
REMARK  130  A    between atoms: _309  and  _312
REMARK  131  A    between atoms: _312  and  _313
REMARK  132  A    between atoms: _313  and  _314
REMARK  133  A    between atoms: _319  and  _321
REMARK  134  A    between atoms: _321  and  _322
REMARK  135  A    between atoms: _324  and  _326
REMARK  136  A    between atoms: _326  and  _327
REMARK  137  A    between atoms: _326  and  _329
REMARK  138  A    between atoms: _329  and  _330
REMARK  139  A    between atoms: _333  and  _335
REMARK  140  A    between atoms: _335  and  _336
REMARK  141  A    between atoms: _335  and  _338
REMARK  142  A    between atoms: _338  and  _339
REMARK  143  A    between atoms: _341  and  _343
REMARK  144  A    between atoms: _343  and  _344
REMARK  145  A    between atoms: _346  and  _348
REMARK  146  A    between atoms: _348  and  _349
REMARK  147  A    between atoms: _351  and  _353
REMARK  148  A    between atoms: _353  and  _354
REMARK  149  A    between atoms: _353  and  _356
REMARK  150  A    between atoms: _359  and  _361
REMARK  151  A    between atoms: _361  and  _362
REMARK  152  A    between atoms: _361  and  _364
REMARK  153  A    between atoms: _364  and  _365
REMARK  154  A    between atoms: _368  and  _370
REMARK  155  A    between atoms: _370  and  _371
REMARK  156  A    between atoms: _370  and  _373
REMARK  157  A    between atoms: _373  and  _374
REMARK  158  A    between atoms: _376  and  _378
REMARK  159  A    between atoms: _378  and  _379
REMARK  160  A    between atoms: _378  and  _381
REMARK  161  A    between atoms: _381  and  _382
REMARK  162  A    between atoms: _388  and  _390
REMARK  163  A    between atoms: _390  and  _391
REMARK  164  A    between atoms: _390  and  _393
REMARK  165  A    between atoms: _396  and  _398
REMARK  166  A    between atoms: _398  and  _399
REMARK  167  A    between atoms: _398  and  _401
REMARK  168  A    between atoms: _401  and  _402
REMARK  169  A    between atoms: _404  and  _406
REMARK  170  A    between atoms: _406  and  _407
REMARK  171  A    between atoms: _406  and  _409
REMARK  172  A    between atoms: _409  and  _410
REMARK  173  A    between atoms: _410  and  _411
REMARK  174  A    between atoms: _411  and  _412
REMARK  175  A    between atoms: _421  and  _423
REMARK  176  A    between atoms: _423  and  _424
REMARK  177  A    between atoms: _423  and  _426
REMARK  178  A    between atoms: _426  and  _427
REMARK  179  A    between atoms: _430  and  _432
REMARK  180  A    between atoms: _432  and  _433
REMARK  181  A    between atoms: _435  and  _437
REMARK  182  A    between atoms: _437  and  _438
REMARK  183  A    between atoms: _437  and  _440
REMARK  184  A    between atoms: _440  and  _441
REMARK  185  A    between atoms: _442  and  _444
REMARK  186  A    between atoms: _444  and  _445
REMARK  187  A    between atoms: _444  and  _447
REMARK  188  A    between atoms: _447  and  _448
REMARK  189  A    between atoms: _453  and  _455
REMARK  190  A    between atoms: _455  and  _456
REMARK  191  A    between atoms: _455  and  _458
REMARK  192  A    between atoms: _461  and  _463
REMARK  193  A    between atoms: _463  and  _464
REMARK  194  A    between atoms: _463  and  _466
REMARK  195  A    between atoms: _466  and  _467
REMARK  196  A    between atoms: _470  and  _472
REMARK  197  A    between atoms: _472  and  _473
REMARK  198  A    between atoms: _472  and  _475
REMARK  199  A    between atoms: _478  and  _480
REMARK  200  A    between atoms: _480  and  _481
REMARK  201  A    between atoms: _480  and  _483
REMARK  202  A    between atoms: _483  and  _484
REMARK  203  A    between atoms: _490  and  _492
REMARK  204  A    between atoms: _492  and  _493
REMARK  205  A    between atoms: _492  and  _495
REMARK  206  A    between atoms: _495  and  _496
REMARK                            x       y       z     vdW  Elec       q    Type
REMARK                         _______ _______ _______ _____ _____    ______ ____
ROOT
ATOM      1  CA  CYS A  10      34.368  27.501  35.845  0.00  0.00    +0.160 C 
ENDROOT
BRANCH   1   2
ATOM      2  N   CYS A  10      33.551  26.837  34.870  0.00  0.00    -0.296 N 
ATOM      3  C   GLY A   9      32.636  25.950  35.224  0.00  0.00    +0.243 C 
ATOM      4  O   GLY A   9      32.480  25.567  36.365  0.00  0.00    -0.273 OA
ATOM      5  H   CYS A  10      33.681  27.058  33.862  0.00  0.00    +0.150 HD
BRANCH   3   6
ATOM      6  CA  GLY A   9      31.799  25.392  34.104  0.00  0.00    +0.176 C 
BRANCH   6   7
ATOM      7  N   GLY A   9      31.285  24.109  34.509  0.00  0.00    -0.295 N 
ATOM      8  H   GLY A   9      31.712  23.627  35.325  0.00  0.00    +0.150 HD
ATOM      9  C   LEU A   8      30.280  23.526  33.867  0.00  0.00    +0.241 C 
ATOM     10  O   LEU A   8      29.765  24.026  32.857  0.00  0.00    -0.273 OA
BRANCH   9  11
ATOM     11  CA  LEU A   8      29.799  22.189  34.417  0.00  0.00    +0.149 C 
BRANCH  11  12
ATOM     12  N   LEU A   8      30.761  21.462  35.235  0.00  0.00    -0.297 N 
ATOM     13  H   LEU A   8      30.620  21.419  36.265  0.00  0.00    +0.150 HD
ATOM     14  C   ARG A   7      31.826  20.845  34.693  0.00  0.00    +0.241 C 
ATOM     15  O   ARG A   7      32.024  20.845  33.488  0.00  0.00    -0.273 OA
BRANCH  14  16
ATOM     16  CA  ARG A   7      32.858  20.143  35.565  0.00  0.00    +0.149 C 
BRANCH  16  17
ATOM     17  N   ARG A   7      32.699  20.687  36.902  0.00  0.00    -0.297 N 
ATOM     18  H   ARG A   7      32.296  20.093  37.655  0.00  0.00    +0.150 HD
ATOM     19  C   SER A   6      33.063  21.936  37.174  0.00  0.00    +0.243 C 
ATOM     20  O   SER A   6      33.660  22.645  36.369  0.00  0.00    -0.273 OA
BRANCH  19  21
ATOM     21  CA  SER A   6      32.715  22.444  38.562  0.00  0.00    +0.178 C 
BRANCH  21  22
ATOM     22  N   SER A   6      33.761  23.296  39.101  0.00  0.00    -0.295 N 
ATOM     23  H   SER A   6      33.528  24.284  39.329  0.00  0.00    +0.150 HD
ATOM     24  C   VAL A   5      34.993  22.874  39.315  0.00  0.00    +0.241 C 
ATOM     25  O   VAL A   5      35.315  21.698  39.126  0.00  0.00    -0.273 OA
BRANCH  24  26
ATOM     26  CA  VAL A   5      35.974  23.926  39.837  0.00  0.00    +0.149 C 
BRANCH  26  27
ATOM     27  N   VAL A   5      37.205  23.238  40.143  0.00  0.00    -0.297 N 
ATOM     28  C   PHE A   4      37.867  23.321  41.302  0.00  0.00    +0.241 C 
ATOM     29  O   PHE A   4      37.628  24.147  42.198  0.00  0.00    -0.273 OA
ATOM     30  H   VAL A   5      37.610  22.629  39.403  0.00  0.00    +0.150 HD
BRANCH  28  31
ATOM     31  CA  PHE A   4      39.055  22.358  41.358  0.00  0.00    +0.153 C 
BRANCH  31  32
ATOM     32  N   PHE A   4      40.015  22.755  42.350  0.00  0.00    -0.297 N 
ATOM     33  H   PHE A   4      39.723  23.341  43.158  0.00  0.00    +0.150 HD
ATOM     34  C   SER A   3      41.283  22.365  42.225  0.00  0.00    +0.243 C 
ATOM     35  O   SER A   3      41.618  21.664  41.264  0.00  0.00    -0.273 OA
BRANCH  34  36
ATOM     36  CA  SER A   3      42.342  22.742  43.256  0.00  0.00    +0.178 C 
BRANCH  36  37
ATOM     37  N   SER A   3      42.478  24.167  43.465  0.00  0.00    -0.295 N 
ATOM     38  H   SER A   3      41.657  24.715  43.793  0.00  0.00    +0.150 HD
ATOM     39  C   THR A   2      43.632  24.790  43.246  0.00  0.00    +0.243 C 
ATOM     40  O   THR A   2      44.609  24.220  42.746  0.00  0.00    -0.273 OA
BRANCH  39  41
ATOM     41  CA  THR A   2      43.697  26.257  43.694  0.00  0.00    +0.176 C 
BRANCH  41  42
ATOM     42  N   THR A   2      44.896  26.517  44.525  0.00  0.00    -0.295 N 
ATOM     43  C   VAL A   1      45.097  25.897  45.701  0.00  0.00    +0.238 C 
ATOM     44  O   VAL A   1      44.303  25.011  46.059  0.00  0.00    -0.274 OA
ATOM     45  H   THR A   2      45.604  27.200  44.188  0.00  0.00    +0.150 HD
BRANCH  43  46
ATOM     46  CA  VAL A   1      46.273  26.292  46.615  0.00  0.00    +0.145 C 
BRANCH  46  47
ATOM     47  CB  VAL A   1      47.187  25.074  46.930  0.00  0.00    +0.025 C 
ATOM     48  CG2 VAL A   1      48.425  25.493  47.714  0.00  0.00    +0.002 C 
ATOM     49  CG1 VAL A   1      47.723  24.488  45.651  0.00  0.00    +0.002 C 
ENDBRANCH  46  47
BRANCH  46  50
ATOM     50  N   VAL A   1      45.573  26.746  47.822  0.00  0.00    -0.238 NA
ATOM     51  H   VAL A   1      45.000  26.053  48.345  0.00  0.00    +0.142 HD
ENDBRANCH  46  50
ENDBRANCH  43  46
ENDBRANCH  41  42
BRANCH  41  52
ATOM     52  CB  THR A   2      43.699  27.186  42.439  0.00  0.00    +0.137 C 
ATOM     53  CG2 THR A   2      42.359  27.127  41.752  0.00  0.00    +0.034 C 
BRANCH  52  54
ATOM     54  OG1 THR A   2      43.998  28.538  42.827  0.00  0.00    -0.382 OA
ATOM     55  HG1 THR A   2      43.997  29.118  42.025  0.00  0.00    +0.210 HD
ENDBRANCH  52  54
ENDBRANCH  41  52
ENDBRANCH  39  41
ENDBRANCH  36  37
BRANCH  36  56
ATOM     56  CB  SER A   3      42.014  22.028  44.615  0.00  0.00    +0.166 C 
BRANCH  56  57
ATOM     57  OG  SER A   3      41.964  20.601  44.518  0.00  0.00    -0.380 OA
ATOM     58  H   SER A   3      42.842  20.261  44.210  0.00  0.00    +0.211 HD
ENDBRANCH  56  57
ENDBRANCH  36  56
ENDBRANCH  34  36
ENDBRANCH  31  32
BRANCH  31  59
ATOM     59  CB  PHE A   4      38.609  20.871  41.646  0.00  0.00    +0.055 C 
BRANCH  59  60
ATOM     60  CG  PHE A   4      37.853  20.540  42.948  0.00  0.00    -0.020 A 
ATOM     61  CD2 PHE A   4      38.546  20.139  44.094  0.00  0.00    -0.004 A 
ATOM     62  CE2 PHE A   4      37.825  19.861  45.254  0.00  0.00    -0.000 A 
ATOM     63  CZ  PHE A   4      36.444  19.968  45.285  0.00  0.00    -0.000 A 
ATOM     64  CE1 PHE A   4      35.764  20.354  44.151  0.00  0.00    -0.000 A 
ATOM     65  CD1 PHE A   4      36.468  20.640  42.988  0.00  0.00    -0.004 A 
ENDBRANCH  59  60
ENDBRANCH  31  59
ENDBRANCH  28  31
ENDBRANCH  26  27
BRANCH  26  66
ATOM     66  CB  VAL A   5      36.170  25.046  38.756  0.00  0.00    +0.027 C 
ATOM     67  CG2 VAL A   5      36.999  26.192  39.339  0.00  0.00    +0.002 C 
ATOM     68  CG1 VAL A   5      36.889  24.517  37.531  0.00  0.00    +0.002 C 
ENDBRANCH  26  66
ENDBRANCH  24  26
ENDBRANCH  21  22
BRANCH  21  69
ATOM     69  CB  SER A   6      31.448  23.248  38.492  0.00  0.00    +0.166 C 
BRANCH  69  70
ATOM     70  OG  SER A   6      30.392  22.488  37.935  0.00  0.00    -0.380 OA
ATOM     71  H   SER A   6      29.571  23.041  37.901  0.00  0.00    +0.211 HD
ENDBRANCH  69  70
ENDBRANCH  21  69
ENDBRANCH  19  21
ENDBRANCH  16  17
BRANCH  16  72
ATOM     72  CB  ARG A   7      32.636  18.611  35.532  0.00  0.00    +0.033 C 
BRANCH  72  73
ATOM     73  CG  ARG A   7      31.274  18.031  35.871  0.00  0.00    +0.045 C 
BRANCH  73  74
ATOM     74  CD  ARG A   7      31.123  16.550  35.440  0.00  0.00    +0.174 C 
BRANCH  74  75
ATOM     75  NE  ARG A   7      29.720  16.126  35.490  0.00  0.00    -0.265 N 
ATOM     76  HE  ARG A   7      29.403  15.573  36.312  0.00  0.00    +0.259 HD
ATOM     77  CZ  ARG A   7      28.822  16.412  34.535  0.00  0.00    +0.342 C 
ATOM     78  NH2 ARG A   7      27.558  16.055  34.720  0.00  0.00    -0.292 N 
ATOM     79 HH21 ARG A   7      27.279  15.563  35.593  0.00  0.00    +0.255 HD
ATOM     80 HH22 ARG A   7      26.846  16.267  33.992  0.00  0.00    +0.255 HD
ATOM     81  NH1 ARG A   7      29.112  17.100  33.426  0.00  0.00    -0.292 N 
ATOM     82 HH11 ARG A   7      30.080  17.446  33.267  0.00  0.00    +0.255 HD
ATOM     83 HH12 ARG A   7      28.370  17.289  32.722  0.00  0.00    +0.255 HD
ENDBRANCH  74  75
ENDBRANCH  73  74
ENDBRANCH  72  73
ENDBRANCH  16  72
ENDBRANCH  14  16
ENDBRANCH  11  12
BRANCH  11  84
ATOM     84  CB  LEU A   8      28.570  22.446  35.200  0.00  0.00    +0.029 C 
BRANCH  84  85
ATOM     85  CG  LEU A   8      27.946  21.156  35.747  0.00  0.00    +0.002 C 
ATOM     86  CD2 LEU A   8      26.872  21.537  36.753  0.00  0.00    +0.000 C 
ATOM     87  CD1 LEU A   8      27.428  20.276  34.617  0.00  0.00    +0.000 C 
ENDBRANCH  84  85
ENDBRANCH  11  84
ENDBRANCH   9  11
ENDBRANCH   6   7
ENDBRANCH   3   6
ENDBRANCH   1   2
BRANCH   1  88
ATOM     88  C   CYS A  10      33.579  28.478  36.699  0.00  0.00    +0.242 C 
ATOM     89  O   CYS A  10      33.635  28.351  37.904  0.00  0.00    -0.273 OA
ATOM     90  N   ASN A  11      32.806  29.430  36.175  0.00  0.00    -0.297 N 
ATOM     91  H   ASN A  11      32.735  29.484  35.139  0.00  0.00    +0.150 HD
BRANCH  90  92
ATOM     92  CA  ASN A  11      32.052  30.403  36.965  0.00  0.00    +0.158 C 
BRANCH  92  93
ATOM     93  C   ASN A  11      30.624  29.969  37.036  0.00  0.00    +0.241 C 
ATOM     94  N   VAL A  12      30.309  29.176  38.027  0.00  0.00    -0.298 N 
ATOM     95  H   VAL A  12      31.046  28.903  38.708  0.00  0.00    +0.150 HD
ATOM     96  O   ASN A  11      29.784  30.262  36.200  0.00  0.00    -0.273 OA
BRANCH  94  97
ATOM     97  CA  VAL A  12      28.962  28.665  38.205  0.00  0.00    +0.137 C 
BRANCH  97  98
ATOM     98  CB  VAL A  12      29.033  27.119  38.028  0.00  0.00    +0.026 C 
ATOM     99  CG2 VAL A  12      27.718  26.430  38.416  0.00  0.00    +0.002 C 
ATOM    100  CG1 VAL A  12      29.253  26.822  36.552  0.00  0.00    +0.002 C 
ENDBRANCH  97  98
BRANCH  97 101
ATOM    101  C   VAL A  12      28.460  29.105  39.581  0.00  0.00    +0.227 C 
ATOM    102  O   VAL A  12      29.160  29.026  40.604  0.00  0.00    -0.286 OA
ENDBRANCH  97 101
ENDBRANCH  94  97
ENDBRANCH  92  93
BRANCH  92 103
ATOM    103  CB  ASN A  11      32.150  31.779  36.328  0.00  0.00    +0.114 C 
BRANCH 103 104
ATOM    104  CG  ASN A  11      31.776  31.810  34.847  0.00  0.00    +0.222 C 
ATOM    105  ND2 ASN A  11      30.828  32.648  34.433  0.00  0.00    -0.329 N 
ATOM    106 HD21 ASN A  11      30.370  33.291  35.110  0.00  0.00    +0.145 HD
ATOM    107 HD22 ASN A  11      30.545  32.660  33.432  0.00  0.00    +0.145 HD
ATOM    108  OD1 ASN A  11      32.319  31.047  34.041  0.00  0.00    -0.275 OA
ENDBRANCH 103 104
ENDBRANCH  92 103
ENDBRANCH  90  92
ENDBRANCH   1  88
BRANCH   1 109
ATOM    109  CB  CYS A  10      35.461  28.201  35.116  0.00  0.00    +0.098 C 
BRANCH 109 110
ATOM    110  SG  CYS A  10      36.647  27.064  34.364  0.00  0.00    -0.080 S 
BRANCH 110 111
ATOM    111  SG  SER A   3      37.954  28.233  33.374  0.00  0.00    -0.080 S 
BRANCH 111 112
ATOM    112  CB  SER A   3      39.096  29.056  34.534  0.00  0.00    +0.098 C 
BRANCH 112 113
ATOM    113  CA  SER A   3      39.509  28.154  35.759  0.00  0.00    +0.160 C 
BRANCH 113 114
ATOM    114  C   SER A   3      40.744  27.340  35.398  0.00  0.00    +0.242 C 
ATOM    115  O   SER A   3      41.796  27.568  35.999  0.00  0.00    -0.273 OA
ATOM    116  N   PHE A   4      40.713  26.389  34.451  0.00  0.00    -0.297 N 
ATOM    117  H   PHE A   4      39.819  26.212  33.950  0.00  0.00    +0.150 HD
BRANCH 116 118
ATOM    118  CA  PHE A   4      41.885  25.592  34.095  0.00  0.00    +0.149 C 
BRANCH 118 119
ATOM    119  C   PHE A   4      43.107  26.415  33.856  0.00  0.00    +0.241 C 
ATOM    120  N   VAL A   5      44.286  26.022  34.354  0.00  0.00    -0.295 N 
ATOM    121  H   VAL A   5      44.317  25.113  34.858  0.00  0.00    +0.150 HD
ATOM    122  O   PHE A   4      42.942  27.456  33.234  0.00  0.00    -0.273 OA
BRANCH 120 123
ATOM    123  CA  VAL A   5      45.546  26.785  34.241  0.00  0.00    +0.176 C 
BRANCH 123 124
ATOM    124  C   VAL A   5      45.821  27.690  35.457  0.00  0.00    +0.243 C 
ATOM    125  N   SER A   6      44.808  27.926  36.298  0.00  0.00    -0.296 N 
ATOM    126  H   SER A   6      43.854  27.609  36.031  0.00  0.00    +0.150 HD
ATOM    127  O   VAL A   5      46.904  28.245  35.569  0.00  0.00    -0.273 OA
BRANCH 125 128
ATOM    128  CA  SER A   6      44.988  28.610  37.575  0.00  0.00    +0.160 C 
BRANCH 128 129
ATOM    129  C   SER A   6      45.353  27.604  38.678  0.00  0.00    +0.241 C 
ATOM    130  O   SER A   6      45.887  27.999  39.703  0.00  0.00    -0.273 OA
ATOM    131  N   ARG A   7      45.120  26.301  38.460  0.00  0.00    -0.295 N 
ATOM    132  H   ARG A   7      44.623  26.056  37.580  0.00  0.00    +0.150 HD
BRANCH 131 133
ATOM    133  CA  ARG A   7      45.496  25.184  39.340  0.00  0.00    +0.178 C 
BRANCH 133 134
ATOM    134  C   ARG A   7      46.832  25.356  40.015  0.00  0.00    +0.243 C 
ATOM    135  N   LEU A   8      46.951  25.077  41.300  0.00  0.00    -0.295 N 
ATOM    136  H   LEU A   8      46.115  24.800  41.853  0.00  0.00    +0.150 HD
ATOM    137  O   ARG A   7      47.781  25.791  39.370  0.00  0.00    -0.273 OA
BRANCH 135 138
ATOM    138  CA  LEU A   8      48.247  25.158  41.935  0.00  0.00    +0.176 C 
BRANCH 138 139
ATOM    139  C   LEU A   8      48.566  26.524  42.502  0.00  0.00    +0.243 C 
ATOM    140  O   LEU A   8      49.417  26.631  43.396  0.00  0.00    -0.273 OA
ATOM    141  N   GLY A   9      47.878  27.567  41.978  0.00  0.00    -0.296 N 
ATOM    142  H   GLY A   9      47.101  27.396  41.308  0.00  0.00    +0.150 HD
BRANCH 141 143
ATOM    143  CA  GLY A   9      48.228  28.922  42.354  0.00  0.00    +0.163 C 
BRANCH 143 144
ATOM    144  C   GLY A   9      47.653  29.337  43.694  0.00  0.00    +0.229 C 
ATOM    145  O   GLY A   9      46.865  28.597  44.306  0.00  0.00    -0.286 OA
ENDBRANCH 143 144
ENDBRANCH 141 143
ENDBRANCH 138 139
ENDBRANCH 135 138
ENDBRANCH 133 134
BRANCH 133 146
ATOM    146  CB  ARG A   7      45.580  23.890  38.534  0.00  0.00    +0.166 C 
BRANCH 146 147
ATOM    147  O   ARG A   7      44.314  23.381  38.110  0.00  0.00    -0.380 OA
ATOM    148  H   ARG A   7      44.451  22.546  37.596  0.00  0.00    +0.211 HD
ENDBRANCH 146 147
ENDBRANCH 133 146
ENDBRANCH 131 133
ENDBRANCH 128 129
BRANCH 128 149
ATOM    149  CB  SER A   6      43.733  29.345  38.003  0.00  0.00    +0.143 C 
BRANCH 149 150
ATOM    150  CG  SER A   6      43.380  30.501  37.103  0.00  0.00    +0.367 C 
ATOM    151  OD2 SER A   6      42.199  30.695  36.860  0.00  0.00    -0.246 OA
ATOM    152  OD1 SER A   6      44.282  31.198  36.652  0.00  0.00    -0.246 OA
ENDBRANCH 149 150
ENDBRANCH 128 149
ENDBRANCH 125 128
ENDBRANCH 123 124
ENDBRANCH 120 123
ENDBRANCH 118 119
BRANCH 118 153
ATOM    153  CB  PHE A   4      41.655  24.810  32.835  0.00  0.00    +0.039 C 
BRANCH 153 154
ATOM    154  CG  PHE A   4      40.680  23.683  33.098  0.00  0.00    +0.087 C 
BRANCH 154 155
ATOM    155  CD  PHE A   4      39.292  24.017  32.633  0.00  0.00    +0.219 C 
ATOM    156  NE2 PHE A   4      38.569  24.812  33.404  0.00  0.00    -0.329 N 
ATOM    157 HE21 PHE A   4      38.978  25.203  34.277  0.00  0.00    +0.145 HD
ATOM    158 HE22 PHE A   4      37.591  25.047  33.137  0.00  0.00    +0.145 HD
ATOM    159  OE1 PHE A   4      38.840  23.535  31.590  0.00  0.00    -0.275 OA
ENDBRANCH 154 155
ENDBRANCH 153 154
ENDBRANCH 118 153
ENDBRANCH 116 118
ENDBRANCH 113 114
BRANCH 113 162
ATOM    160  C   THR A   2      38.972  29.406  37.764  0.00  0.00    +0.243 C 
ATOM    161  O   THR A   2      37.780  29.191  37.521  0.00  0.00    -0.273 OA
ATOM    162  N   SER A   3      39.901  28.961  36.939  0.00  0.00    -0.296 N 
ATOM    163  H   SER A   3      40.903  29.175  37.116  0.00  0.00    +0.150 HD
BRANCH 160 164
ATOM    164  CA  THR A   2      39.364  30.208  39.003  0.00  0.00    +0.176 C 
BRANCH 164 166
ATOM    165  C   VAL A   1      37.592  31.883  39.001  0.00  0.00    +0.241 C 
ATOM    166  N   THR A   2      38.160  30.827  39.565  0.00  0.00    -0.295 N 
ATOM    167  H   THR A   2      37.741  30.427  40.429  0.00  0.00    +0.150 HD
ATOM    168  O   VAL A   1      38.159  32.562  38.140  0.00  0.00    -0.274 OA
BRANCH 165 169
ATOM    169  CA  VAL A   1      36.198  32.147  39.479  0.00  0.00    +0.174 C 
BRANCH 169 170
ATOM    170  N   VAL A   1      35.713  33.421  38.988  0.00  0.00    -0.236 NA
ATOM    171  H   VAL A   1      36.235  33.910  38.233  0.00  0.00    +0.142 HD
ENDBRANCH 169 170
BRANCH 169 172
ATOM    172  CB  VAL A   1      35.297  31.007  38.996  0.00  0.00    +0.163 C 
BRANCH 172 173
ATOM    173  O   VAL A   1      35.336  30.935  37.577  0.00  0.00    -0.380 OA
ATOM    174  H   VAL A   1      36.266  30.767  37.282  0.00  0.00    +0.211 HD
ENDBRANCH 172 173
ENDBRANCH 169 172
ENDBRANCH 165 169
ENDBRANCH 164 166
ENDBRANCH 160 164
ENDBRANCH 113 162
ENDBRANCH 112 113
ENDBRANCH 111 112
ENDBRANCH 110 111
ENDBRANCH 109 110
ENDBRANCH   1 109
TORSDOF 75
REMARK  Name = ../refined-set-2016/1bma/1bma_pocket.pdb
REMARK  206 active torsions:
REMARK  status: ('A' for Active; 'I' for Inactive)
REMARK    1  A    between atoms: _1  and  _5
REMARK    2  A    between atoms: _5  and  _6
REMARK    3  A    between atoms: _5  and  _8
REMARK    4  A    between atoms: _11  and  _13
REMARK    5  A    between atoms: _13  and  _14
REMARK    6  A    between atoms: _13  and  _16
REMARK    7  A    between atoms: _16  and  _17
REMARK    8  A    between atoms: _20  and  _22
REMARK    9  A    between atoms: _22  and  _23
REMARK   10  A    between atoms: _22  and  _25
REMARK   11  A    between atoms: _25  and  _26
REMARK   12  A    between atoms: _26  and  _61
REMARK   13  A    between atoms: _27  and  _29
REMARK   14  A    between atoms: _29  and  _30
REMARK   15  A    between atoms: _32  and  _34
REMARK   16  A    between atoms: _34  and  _35
REMARK   17  A    between atoms: _38  and  _40
REMARK   18  A    between atoms: _40  and  _41
REMARK   19  A    between atoms: _44  and  _46
REMARK   20  A    between atoms: _46  and  _47
REMARK   21  A    between atoms: _46  and  _49
REMARK   22  A    between atoms: _49  and  _50
REMARK   23  A    between atoms: _55  and  _57
REMARK   24  A    between atoms: _57  and  _58
REMARK   25  A    between atoms: _57  and  _60
REMARK   26  A    between atoms: _60  and  _61
REMARK   27  A    between atoms: _62  and  _64
REMARK   28  A    between atoms: _64  and  _65
REMARK   29  A    between atoms: _64  and  _67
REMARK   30  A    between atoms: _67  and  _68
REMARK   31  A    between atoms: _71  and  _73
REMARK   32  A    between atoms: _73  and  _74
REMARK   33  A    between atoms: _73  and  _76
REMARK   34  A    between atoms: _76  and  _77
REMARK   35  A    between atoms: _87  and  _89
REMARK   36  A    between atoms: _89  and  _90
REMARK   37  A    between atoms: _89  and  _92
REMARK   38  A    between atoms: _92  and  _93
REMARK   39  A    between atoms: _98  and  _100
REMARK   40  A    between atoms: _100  and  _101
REMARK   41  A    between atoms: _100  and  _103
REMARK   42  A    between atoms: _103  and  _104
REMARK   43  A    between atoms: _107  and  _109
REMARK   44  A    between atoms: _109  and  _110
REMARK   45  A    between atoms: _109  and  _112
REMARK   46  A    between atoms: _112  and  _113
REMARK   47  A    between atoms: _116  and  _118
REMARK   48  A    between atoms: _118  and  _119
REMARK   49  A    between atoms: _118  and  _121
REMARK   50  A    between atoms: _121  and  _122
REMARK   51  A    between atoms: _125  and  _127
REMARK   52  A    between atoms: _127  and  _128
REMARK   53  A    between atoms: _127  and  _130
REMARK   54  A    between atoms: _133  and  _135
REMARK   55  A    between atoms: _135  and  _136
REMARK   56  A    between atoms: _139  and  _141
REMARK   57  A    between atoms: _141  and  _142
REMARK   58  A    between atoms: _145  and  _147
REMARK   59  A    between atoms: _147  and  _148
REMARK   60  A    between atoms: _150  and  _152
REMARK   61  A    between atoms: _152  and  _153
REMARK   62  A    between atoms: _152  and  _155
REMARK   63  A    between atoms: _155  and  _156
REMARK   64  A    between atoms: _159  and  _161
REMARK   65  A    between atoms: _161  and  _162
REMARK   66  A    between atoms: _161  and  _164
REMARK   67  A    between atoms: _164  and  _165
REMARK   68  A    between atoms: _168  and  _170
REMARK   69  A    between atoms: _170  and  _171
REMARK   70  A    between atoms: _173  and  _175
REMARK   71  A    between atoms: _175  and  _176
REMARK   72  A    between atoms: _175  and  _178
REMARK   73  A    between atoms: _178  and  _179
REMARK   74  A    between atoms: _182  and  _184
REMARK   75  A    between atoms: _184  and  _185
REMARK   76  A    between atoms: _184  and  _187
REMARK   77  A    between atoms: _187  and  _188
REMARK   78  A    between atoms: _188  and  _189
REMARK   79  A    between atoms: _189  and  _190
REMARK   80  A    between atoms: _199  and  _201
REMARK   81  A    between atoms: _201  and  _202
REMARK   82  A    between atoms: _201  and  _204
REMARK   83  A    between atoms: _204  and  _205
REMARK   84  A    between atoms: _208  and  _210
REMARK   85  A    between atoms: _210  and  _211
REMARK   86  A    between atoms: _210  and  _213
REMARK   87  A    between atoms: _213  and  _214
REMARK   88  A    between atoms: _219  and  _221
REMARK   89  A    between atoms: _221  and  _222
REMARK   90  A    between atoms: _224  and  _226
REMARK   91  A    between atoms: _226  and  _227
REMARK   92  A    between atoms: _226  and  _229
REMARK   93  A    between atoms: _229  and  _230
REMARK   94  A    between atoms: _240  and  _242
REMARK   95  A    between atoms: _242  and  _243
REMARK   96  A    between atoms: _242  and  _245
REMARK   97  A    between atoms: _245  and  _246
REMARK   98  A    between atoms: _248  and  _250
REMARK   99  A    between atoms: _250  and  _251
REMARK  100  A    between atoms: _250  and  _253
REMARK  101  A    between atoms: _253  and  _254
REMARK  102  A    between atoms: _257  and  _259
REMARK  103  A    between atoms: _259  and  _260
REMARK  104  A    between atoms: _259  and  _262
REMARK  105  A    between atoms: _265  and  _267
REMARK  106  A    between atoms: _267  and  _268
REMARK  107  A    between atoms: _267  and  _270
REMARK  108  A    between atoms: _270  and  _271
REMARK  109  A    between atoms: _271  and  _272
REMARK  110  A    between atoms: _272  and  _273
REMARK  111  A    between atoms: _273  and  _274
REMARK  112  A    between atoms: _278  and  _280
REMARK  113  A    between atoms: _280  and  _281
REMARK  114  A    between atoms: _280  and  _283
REMARK  115  A    between atoms: _283  and  _284
REMARK  116  A    between atoms: _284  and  _285
REMARK  117  A    between atoms: _287  and  _289
REMARK  118  A    between atoms: _289  and  _290
REMARK  119  A    between atoms: _289  and  _292
REMARK  120  A    between atoms: _292  and  _293
REMARK  121  A    between atoms: _295  and  _297
REMARK  122  A    between atoms: _297  and  _298
REMARK  123  A    between atoms: _300  and  _302
REMARK  124  A    between atoms: _302  and  _303
REMARK  125  A    between atoms: _302  and  _305
REMARK  126  A    between atoms: _305  and  _306
REMARK  127  A    between atoms: _306  and  _441
REMARK  128  A    between atoms: _307  and  _309
REMARK  129  A    between atoms: _309  and  _310
REMARK  130  A    between atoms: _309  and  _312
REMARK  131  A    between atoms: _312  and  _313
REMARK  132  A    between atoms: _313  and  _314
REMARK  133  A    between atoms: _319  and  _321
REMARK  134  A    between atoms: _321  and  _322
REMARK  135  A    between atoms: _324  and  _326
REMARK  136  A    between atoms: _326  and  _327
REMARK  137  A    between atoms: _326  and  _329
REMARK  138  A    between atoms: _329  and  _330
REMARK  139  A    between atoms: _333  and  _335
REMARK  140  A    between atoms: _335  and  _336
REMARK  141  A    between atoms: _335  and  _338
REMARK  142  A    between atoms: _338  and  _339
REMARK  143  A    between atoms: _341  and  _343
REMARK  144  A    between atoms: _343  and  _344
REMARK  145  A    between atoms: _346  and  _348
REMARK  146  A    between atoms: _348  and  _349
REMARK  147  A    between atoms: _351  and  _353
REMARK  148  A    between atoms: _353  and  _354
REMARK  149  A    between atoms: _353  and  _356
REMARK  150  A    between atoms: _359  and  _361
REMARK  151  A    between atoms: _361  and  _362
REMARK  152  A    between atoms: _361  and  _364
REMARK  153  A    between atoms: _364  and  _365
REMARK  154  A    between atoms: _368  and  _370
REMARK  155  A    between atoms: _370  and  _371
REMARK  156  A    between atoms: _370  and  _373
REMARK  157  A    between atoms: _373  and  _374
REMARK  158  A    between atoms: _376  and  _378
REMARK  159  A    between atoms: _378  and  _379
REMARK  160  A    between atoms: _378  and  _381
REMARK  161  A    between atoms: _381  and  _382
REMARK  162  A    between atoms: _388  and  _390
REMARK  163  A    between atoms: _390  and  _391
REMARK  164  A    between atoms: _390  and  _393
REMARK  165  A    between atoms: _396  and  _398
REMARK  166  A    between atoms: _398  and  _399
REMARK  167  A    between atoms: _398  and  _401
REMARK  168  A    between atoms: _401  and  _402
REMARK  169  A    between atoms: _404  and  _406
REMARK  170  A    between atoms: _406  and  _407
REMARK  171  A    between atoms: _406  and  _409
REMARK  172  A    between atoms: _409  and  _410
REMARK  173  A    between atoms: _410  and  _411
REMARK  174  A    between atoms: _411  and  _412
REMARK  175  A    between atoms: _421  and  _423
REMARK  176  A    between atoms: _423  and  _424
REMARK  177  A    between atoms: _423  and  _426
REMARK  178  A    between atoms: _426  and  _427
REMARK  179  A    between atoms: _430  and  _432
REMARK  180  A    between atoms: _432  and  _433
REMARK  181  A    between atoms: _435  and  _437
REMARK  182  A    between atoms: _437  and  _438
REMARK  183  A    between atoms: _437  and  _440
REMARK  184  A    between atoms: _440  and  _441
REMARK  185  A    between atoms: _442  and  _444
REMARK  186  A    between atoms: _444  and  _445
REMARK  187  A    between atoms: _444  and  _447
REMARK  188  A    between atoms: _447  and  _448
REMARK  189  A    between atoms: _453  and  _455
REMARK  190  A    between atoms: _455  and  _456
REMARK  191  A    between atoms: _455  and  _458
REMARK  192  A    between atoms: _461  and  _463
REMARK  193  A    between atoms: _463  and  _464
REMARK  194  A    between atoms: _463  and  _466
REMARK  195  A    between atoms: _466  and  _467
REMARK  196  A    between atoms: _470  and  _472
REMARK  197  A    between atoms: _472  and  _473
REMARK  198  A    between atoms: _472  and  _475
REMARK  199  A    between atoms: _478  and  _480
REMARK  200  A    between atoms: _480  and  _481
REMARK  201  A    between atoms: _480  and  _483
REMARK  202  A    between atoms: _483  and  _484
REMARK  203  A    between atoms: _490  and  _492
REMARK  204  A    between atoms: _492  and  _493
REMARK  205  A    between atoms: _492  and  _495
REMARK  206  A    between atoms: _495  and  _496
REMARK                            x       y       z     vdW  Elec       q    Type
REMARK                         _______ _______ _______ _____ _____    ______ ____
ROOT
ATOM      1  C   VAL A   2      39.310  24.989  45.794  0.00  0.00    +0.241 C 
ATOM      2  N   PHE A   3      39.836  25.268  47.011  0.00  0.00    -0.297 N 
ATOM      3  H   PHE A   3      39.176  25.416  47.801  0.00  0.00    +0.150 HD
ATOM      4  O   VAL A   2      39.975  24.661  44.795  0.00  0.00    -0.273 OA
ENDROOT
BRANCH   1   5
ATOM      5  CA  VAL A   2      37.793  25.077  45.766  0.00  0.00    +0.148 C 
BRANCH   5   8
ATOM      6  C   THR A   1      36.744  27.023  44.699  0.00  0.00    +0.241 C 
ATOM      7  O   THR A   1      36.590  27.597  45.793  0.00  0.00    -0.274 OA
ATOM      8  N   VAL A   2      37.346  25.819  44.586  0.00  0.00    -0.297 N 
ATOM      9  H   VAL A   2      37.495  25.411  43.641  0.00  0.00    +0.150 HD
BRANCH   6  10
ATOM     10  CA  THR A   1      36.247  27.684  43.400  0.00  0.00    +0.172 C 
BRANCH  10  11
ATOM     11  N   THR A   1      34.982  28.324  43.701  0.00  0.00    -0.236 NA
ATOM     12  H   THR A   1      34.921  29.362  43.677  0.00  0.00    +0.142 HD
ENDBRANCH  10  11
BRANCH  10  13
ATOM     13  CB  THR A   1      37.265  28.728  42.925  0.00  0.00    +0.135 C 
ATOM     14  CG2 THR A   1      38.580  28.104  42.538  0.00  0.00    +0.034 C 
BRANCH  13  15
ATOM     15  OG1 THR A   1      36.707  29.407  41.795  0.00  0.00    -0.383 OA
ATOM     16  HG1 THR A   1      35.862  29.849  42.061  0.00  0.00    +0.210 HD
ENDBRANCH  13  15
ENDBRANCH  10  13
ENDBRANCH   6  10
ENDBRANCH   5   8
BRANCH   5  17
ATOM     17  CB  VAL A   2      37.184  23.639  45.789  0.00  0.00    +0.027 C 
ATOM     18  CG2 VAL A   2      37.542  22.927  47.128  0.00  0.00    +0.002 C 
ATOM     19  CG1 VAL A   2      35.682  23.721  45.640  0.00  0.00    +0.002 C 
ENDBRANCH   5  17
ENDBRANCH   1   5
BRANCH   2  20
ATOM     20  CA  PHE A   3      41.248  25.374  47.286  0.00  0.00    +0.153 C 
BRANCH  20  21
ATOM     21  C   PHE A   3      41.704  24.385  48.358  0.00  0.00    +0.241 C 
ATOM     22  O   PHE A   3      40.933  24.045  49.248  0.00  0.00    -0.273 OA
ATOM     23  N   THR A   4      42.930  23.878  48.300  0.00  0.00    -0.296 N 
ATOM     24  H   THR A   4      43.490  24.027  47.437  0.00  0.00    +0.150 HD
BRANCH  23  25
ATOM     25  CA  THR A   4      43.525  23.120  49.397  0.00  0.00    +0.164 C 
BRANCH  25  26
ATOM     26  C   THR A   4      43.773  24.150  50.507  0.00  0.00    +0.229 C 
ATOM     27  O   THR A   4      44.362  25.190  50.204  0.00  0.00    -0.286 OA
ENDBRANCH  25  26
BRANCH  25  28
ATOM     28  CB  THR A   4      44.839  22.513  48.957  0.00  0.00    +0.136 C 
ATOM     29  CG2 THR A   4      45.551  21.690  49.984  0.00  0.00    +0.034 C 
BRANCH  28  30
ATOM     30  OG1 THR A   4      44.467  21.693  47.867  0.00  0.00    -0.382 OA
ATOM     31  HG1 THR A   4      43.818  21.011  48.175  0.00  0.00    +0.210 HD
ENDBRANCH  28  30
ENDBRANCH  25  28
ENDBRANCH  23  25
ENDBRANCH  20  21
BRANCH  20  32
ATOM     32  CB  PHE A   3      41.577  26.786  47.779  0.00  0.00    +0.055 C 
BRANCH  32  33
ATOM     33  CG  PHE A   3      41.203  27.888  46.803  0.00  0.00    -0.020 A 
ATOM     34  CD2 PHE A   3      39.888  28.361  46.738  0.00  0.00    -0.004 A 
ATOM     35  CE2 PHE A   3      39.554  29.319  45.788  0.00  0.00    -0.000 A 
ATOM     36  CZ  PHE A   3      40.528  29.801  44.914  0.00  0.00    -0.000 A 
ATOM     37  CE1 PHE A   3      41.836  29.339  44.976  0.00  0.00    -0.000 A 
ATOM     38  CD1 PHE A   3      42.187  28.379  45.927  0.00  0.00    -0.004 A 
ENDBRANCH  32  33
ENDBRANCH  20  32
ENDBRANCH   2  20
TORSDOF 15
REMARK  Name = ../refined-set-2016/1bma/1bma_pocket.pdb
REMARK  206 active torsions:
REMARK  status: ('A' for Active; 'I' for Inactive)
REMARK    1  A    between atoms: _1  and  _5
REMARK    2  A    between atoms: _5  and  _6
REMARK    3  A    between atoms: _5  and  _8
REMARK    4  A    between atoms: _11  and  _13
REMARK    5  A    between atoms: _13  and  _14
REMARK    6  A    between atoms: _13  and  _16
REMARK    7  A    between atoms: _16  and  _17
REMARK    8  A    between atoms: _20  and  _22
REMARK    9  A    between atoms: _22  and  _23
REMARK   10  A    between atoms: _22  and  _25
REMARK   11  A    between atoms: _25  and  _26
REMARK   12  A    between atoms: _26  and  _61
REMARK   13  A    between atoms: _27  and  _29
REMARK   14  A    between atoms: _29  and  _30
REMARK   15  A    between atoms: _32  and  _34
REMARK   16  A    between atoms: _34  and  _35
REMARK   17  A    between atoms: _38  and  _40
REMARK   18  A    between atoms: _40  and  _41
REMARK   19  A    between atoms: _44  and  _46
REMARK   20  A    between atoms: _46  and  _47
REMARK   21  A    between atoms: _46  and  _49
REMARK   22  A    between atoms: _49  and  _50
REMARK   23  A    between atoms: _55  and  _57
REMARK   24  A    between atoms: _57  and  _58
REMARK   25  A    between atoms: _57  and  _60
REMARK   26  A    between atoms: _60  and  _61
REMARK   27  A    between atoms: _62  and  _64
REMARK   28  A    between atoms: _64  and  _65
REMARK   29  A    between atoms: _64  and  _67
REMARK   30  A    between atoms: _67  and  _68
REMARK   31  A    between atoms: _71  and  _73
REMARK   32  A    between atoms: _73  and  _74
REMARK   33  A    between atoms: _73  and  _76
REMARK   34  A    between atoms: _76  and  _77
REMARK   35  A    between atoms: _87  and  _89
REMARK   36  A    between atoms: _89  and  _90
REMARK   37  A    between atoms: _89  and  _92
REMARK   38  A    between atoms: _92  and  _93
REMARK   39  A    between atoms: _98  and  _100
REMARK   40  A    between atoms: _100  and  _101
REMARK   41  A    between atoms: _100  and  _103
REMARK   42  A    between atoms: _103  and  _104
REMARK   43  A    between atoms: _107  and  _109
REMARK   44  A    between atoms: _109  and  _110
REMARK   45  A    between atoms: _109  and  _112
REMARK   46  A    between atoms: _112  and  _113
REMARK   47  A    between atoms: _116  and  _118
REMARK   48  A    between atoms: _118  and  _119
REMARK   49  A    between atoms: _118  and  _121
REMARK   50  A    between atoms: _121  and  _122
REMARK   51  A    between atoms: _125  and  _127
REMARK   52  A    between atoms: _127  and  _128
REMARK   53  A    between atoms: _127  and  _130
REMARK   54  A    between atoms: _133  and  _135
REMARK   55  A    between atoms: _135  and  _136
REMARK   56  A    between atoms: _139  and  _141
REMARK   57  A    between atoms: _141  and  _142
REMARK   58  A    between atoms: _145  and  _147
REMARK   59  A    between atoms: _147  and  _148
REMARK   60  A    between atoms: _150  and  _152
REMARK   61  A    between atoms: _152  and  _153
REMARK   62  A    between atoms: _152  and  _155
REMARK   63  A    between atoms: _155  and  _156
REMARK   64  A    between atoms: _159  and  _161
REMARK   65  A    between atoms: _161  and  _162
REMARK   66  A    between atoms: _161  and  _164
REMARK   67  A    between atoms: _164  and  _165
REMARK   68  A    between atoms: _168  and  _170
REMARK   69  A    between atoms: _170  and  _171
REMARK   70  A    between atoms: _173  and  _175
REMARK   71  A    between atoms: _175  and  _176
REMARK   72  A    between atoms: _175  and  _178
REMARK   73  A    between atoms: _178  and  _179
REMARK   74  A    between atoms: _182  and  _184
REMARK   75  A    between atoms: _184  and  _185
REMARK   76  A    between atoms: _184  and  _187
REMARK   77  A    between atoms: _187  and  _188
REMARK   78  A    between atoms: _188  and  _189
REMARK   79  A    between atoms: _189  and  _190
REMARK   80  A    between atoms: _199  and  _201
REMARK   81  A    between atoms: _201  and  _202
REMARK   82  A    between atoms: _201  and  _204
REMARK   83  A    between atoms: _204  and  _205
REMARK   84  A    between atoms: _208  and  _210
REMARK   85  A    between atoms: _210  and  _211
REMARK   86  A    between atoms: _210  and  _213
REMARK   87  A    between atoms: _213  and  _214
REMARK   88  A    between atoms: _219  and  _221
REMARK   89  A    between atoms: _221  and  _222
REMARK   90  A    between atoms: _224  and  _226
REMARK   91  A    between atoms: _226  and  _227
REMARK   92  A    between atoms: _226  and  _229
REMARK   93  A    between atoms: _229  and  _230
REMARK   94  A    between atoms: _240  and  _242
REMARK   95  A    between atoms: _242  and  _243
REMARK   96  A    between atoms: _242  and  _245
REMARK   97  A    between atoms: _245  and  _246
REMARK   98  A    between atoms: _248  and  _250
REMARK   99  A    between atoms: _250  and  _251
REMARK  100  A    between atoms: _250  and  _253
REMARK  101  A    between atoms: _253  and  _254
REMARK  102  A    between atoms: _257  and  _259
REMARK  103  A    between atoms: _259  and  _260
REMARK  104  A    between atoms: _259  and  _262
REMARK  105  A    between atoms: _265  and  _267
REMARK  106  A    between atoms: _267  and  _268
REMARK  107  A    between atoms: _267  and  _270
REMARK  108  A    between atoms: _270  and  _271
REMARK  109  A    between atoms: _271  and  _272
REMARK  110  A    between atoms: _272  and  _273
REMARK  111  A    between atoms: _273  and  _274
REMARK  112  A    between atoms: _278  and  _280
REMARK  113  A    between atoms: _280  and  _281
REMARK  114  A    between atoms: _280  and  _283
REMARK  115  A    between atoms: _283  and  _284
REMARK  116  A    between atoms: _284  and  _285
REMARK  117  A    between atoms: _287  and  _289
REMARK  118  A    between atoms: _289  and  _290
REMARK  119  A    between atoms: _289  and  _292
REMARK  120  A    between atoms: _292  and  _293
REMARK  121  A    between atoms: _295  and  _297
REMARK  122  A    between atoms: _297  and  _298
REMARK  123  A    between atoms: _300  and  _302
REMARK  124  A    between atoms: _302  and  _303
REMARK  125  A    between atoms: _302  and  _305
REMARK  126  A    between atoms: _305  and  _306
REMARK  127  A    between atoms: _306  and  _441
REMARK  128  A    between atoms: _307  and  _309
REMARK  129  A    between atoms: _309  and  _310
REMARK  130  A    between atoms: _309  and  _312
REMARK  131  A    between atoms: _312  and  _313
REMARK  132  A    between atoms: _313  and  _314
REMARK  133  A    between atoms: _319  and  _321
REMARK  134  A    between atoms: _321  and  _322
REMARK  135  A    between atoms: _324  and  _326
REMARK  136  A    between atoms: _326  and  _327
REMARK  137  A    between atoms: _326  and  _329
REMARK  138  A    between atoms: _329  and  _330
REMARK  139  A    between atoms: _333  and  _335
REMARK  140  A    between atoms: _335  and  _336
REMARK  141  A    between atoms: _335  and  _338
REMARK  142  A    between atoms: _338  and  _339
REMARK  143  A    between atoms: _341  and  _343
REMARK  144  A    between atoms: _343  and  _344
REMARK  145  A    between atoms: _346  and  _348
REMARK  146  A    between atoms: _348  and  _349
REMARK  147  A    between atoms: _351  and  _353
REMARK  148  A    between atoms: _353  and  _354
REMARK  149  A    between atoms: _353  and  _356
REMARK  150  A    between atoms: _359  and  _361
REMARK  151  A    between atoms: _361  and  _362
REMARK  152  A    between atoms: _361  and  _364
REMARK  153  A    between atoms: _364  and  _365
REMARK  154  A    between atoms: _368  and  _370
REMARK  155  A    between atoms: _370  and  _371
REMARK  156  A    between atoms: _370  and  _373
REMARK  157  A    between atoms: _373  and  _374
REMARK  158  A    between atoms: _376  and  _378
REMARK  159  A    between atoms: _378  and  _379
REMARK  160  A    between atoms: _378  and  _381
REMARK  161  A    between atoms: _381  and  _382
REMARK  162  A    between atoms: _388  and  _390
REMARK  163  A    between atoms: _390  and  _391
REMARK  164  A    between atoms: _390  and  _393
REMARK  165  A    between atoms: _396  and  _398
REMARK  166  A    between atoms: _398  and  _399
REMARK  167  A    between atoms: _398  and  _401
REMARK  168  A    between atoms: _401  and  _402
REMARK  169  A    between atoms: _404  and  _406
REMARK  170  A    between atoms: _406  and  _407
REMARK  171  A    between atoms: _406  and  _409
REMARK  172  A    between atoms: _409  and  _410
REMARK  173  A    between atoms: _410  and  _411
REMARK  174  A    between atoms: _411  and  _412
REMARK  175  A    between atoms: _421  and  _423
REMARK  176  A    between atoms: _423  and  _424
REMARK  177  A    between atoms: _423  and  _426
REMARK  178  A    between atoms: _426  and  _427
REMARK  179  A    between atoms: _430  and  _432
REMARK  180  A    between atoms: _432  and  _433
REMARK  181  A    between atoms: _435  and  _437
REMARK  182  A    between atoms: _437  and  _438
REMARK  183  A    between atoms: _437  and  _440
REMARK  184  A    between atoms: _440  and  _441
REMARK  185  A    between atoms: _442  and  _444
REMARK  186  A    between atoms: _444  and  _445
REMARK  187  A    between atoms: _444  and  _447
REMARK  188  A    between atoms: _447  and  _448
REMARK  189  A    between atoms: _453  and  _455
REMARK  190  A    between atoms: _455  and  _456
REMARK  191  A    between atoms: _455  and  _458
REMARK  192  A    between atoms: _461  and  _463
REMARK  193  A    between atoms: _463  and  _464
REMARK  194  A    between atoms: _463  and  _466
REMARK  195  A    between atoms: _466  and  _467
REMARK  196  A    between atoms: _470  and  _472
REMARK  197  A    between atoms: _472  and  _473
REMARK  198  A    between atoms: _472  and  _475
REMARK  199  A    between atoms: _478  and  _480
REMARK  200  A    between atoms: _480  and  _481
REMARK  201  A    between atoms: _480  and  _483
REMARK  202  A    between atoms: _483  and  _484
REMARK  203  A    between atoms: _490  and  _492
REMARK  204  A    between atoms: _492  and  _493
REMARK  205  A    between atoms: _492  and  _495
REMARK  206  A    between atoms: _495  and  _496
REMARK                            x       y       z     vdW  Elec       q    Type
REMARK                         _______ _______ _______ _____ _____    ______ ____
ROOT
ATOM      1  O   HOH     1      32.882  26.020  39.606  0.00  0.00    +0.000 OA
ENDROOT
TORSDOF 0
REMARK  Name = ../refined-set-2016/1bma/1bma_pocket.pdb
REMARK  206 active torsions:
REMARK  status: ('A' for Active; 'I' for Inactive)
REMARK    1  A    between atoms: _1  and  _5
REMARK    2  A    between atoms: _5  and  _6
REMARK    3  A    between atoms: _5  and  _8
REMARK    4  A    between atoms: _11  and  _13
REMARK    5  A    between atoms: _13  and  _14
REMARK    6  A    between atoms: _13  and  _16
REMARK    7  A    between atoms: _16  and  _17
REMARK    8  A    between atoms: _20  and  _22
REMARK    9  A    between atoms: _22  and  _23
REMARK   10  A    between atoms: _22  and  _25
REMARK   11  A    between atoms: _25  and  _26
REMARK   12  A    between atoms: _26  and  _61
REMARK   13  A    between atoms: _27  and  _29
REMARK   14  A    between atoms: _29  and  _30
REMARK   15  A    between atoms: _32  and  _34
REMARK   16  A    between atoms: _34  and  _35
REMARK   17  A    between atoms: _38  and  _40
REMARK   18  A    between atoms: _40  and  _41
REMARK   19  A    between atoms: _44  and  _46
REMARK   20  A    between atoms: _46  and  _47
REMARK   21  A    between atoms: _46  and  _49
REMARK   22  A    between atoms: _49  and  _50
REMARK   23  A    between atoms: _55  and  _57
REMARK   24  A    between atoms: _57  and  _58
REMARK   25  A    between atoms: _57  and  _60
REMARK   26  A    between atoms: _60  and  _61
REMARK   27  A    between atoms: _62  and  _64
REMARK   28  A    between atoms: _64  and  _65
REMARK   29  A    between atoms: _64  and  _67
REMARK   30  A    between atoms: _67  and  _68
REMARK   31  A    between atoms: _71  and  _73
REMARK   32  A    between atoms: _73  and  _74
REMARK   33  A    between atoms: _73  and  _76
REMARK   34  A    between atoms: _76  and  _77
REMARK   35  A    between atoms: _87  and  _89
REMARK   36  A    between atoms: _89  and  _90
REMARK   37  A    between atoms: _89  and  _92
REMARK   38  A    between atoms: _92  and  _93
REMARK   39  A    between atoms: _98  and  _100
REMARK   40  A    between atoms: _100  and  _101
REMARK   41  A    between atoms: _100  and  _103
REMARK   42  A    between atoms: _103  and  _104
REMARK   43  A    between atoms: _107  and  _109
REMARK   44  A    between atoms: _109  and  _110
REMARK   45  A    between atoms: _109  and  _112
REMARK   46  A    between atoms: _112  and  _113
REMARK   47  A    between atoms: _116  and  _118
REMARK   48  A    between atoms: _118  and  _119
REMARK   49  A    between atoms: _118  and  _121
REMARK   50  A    between atoms: _121  and  _122
REMARK   51  A    between atoms: _125  and  _127
REMARK   52  A    between atoms: _127  and  _128
REMARK   53  A    between atoms: _127  and  _130
REMARK   54  A    between atoms: _133  and  _135
REMARK   55  A    between atoms: _135  and  _136
REMARK   56  A    between atoms: _139  and  _141
REMARK   57  A    between atoms: _141  and  _142
REMARK   58  A    between atoms: _145  and  _147
REMARK   59  A    between atoms: _147  and  _148
REMARK   60  A    between atoms: _150  and  _152
REMARK   61  A    between atoms: _152  and  _153
REMARK   62  A    between atoms: _152  and  _155
REMARK   63  A    between atoms: _155  and  _156
REMARK   64  A    between atoms: _159  and  _161
REMARK   65  A    between atoms: _161  and  _162
REMARK   66  A    between atoms: _161  and  _164
REMARK   67  A    between atoms: _164  and  _165
REMARK   68  A    between atoms: _168  and  _170
REMARK   69  A    between atoms: _170  and  _171
REMARK   70  A    between atoms: _173  and  _175
REMARK   71  A    between atoms: _175  and  _176
REMARK   72  A    between atoms: _175  and  _178
REMARK   73  A    between atoms: _178  and  _179
REMARK   74  A    between atoms: _182  and  _184
REMARK   75  A    between atoms: _184  and  _185
REMARK   76  A    between atoms: _184  and  _187
REMARK   77  A    between atoms: _187  and  _188
REMARK   78  A    between atoms: _188  and  _189
REMARK   79  A    between atoms: _189  and  _190
REMARK   80  A    between atoms: _199  and  _201
REMARK   81  A    between atoms: _201  and  _202
REMARK   82  A    between atoms: _201  and  _204
REMARK   83  A    between atoms: _204  and  _205
REMARK   84  A    between atoms: _208  and  _210
REMARK   85  A    between atoms: _210  and  _211
REMARK   86  A    between atoms: _210  and  _213
REMARK   87  A    between atoms: _213  and  _214
REMARK   88  A    between atoms: _219  and  _221
REMARK   89  A    between atoms: _221  and  _222
REMARK   90  A    between atoms: _224  and  _226
REMARK   91  A    between atoms: _226  and  _227
REMARK   92  A    between atoms: _226  and  _229
REMARK   93  A    between atoms: _229  and  _230
REMARK   94  A    between atoms: _240  and  _242
REMARK   95  A    between atoms: _242  and  _243
REMARK   96  A    between atoms: _242  and  _245
REMARK   97  A    between atoms: _245  and  _246
REMARK   98  A    between atoms: _248  and  _250
REMARK   99  A    between atoms: _250  and  _251
REMARK  100  A    between atoms: _250  and  _253
REMARK  101  A    between atoms: _253  and  _254
REMARK  102  A    between atoms: _257  and  _259
REMARK  103  A    between atoms: _259  and  _260
REMARK  104  A    between atoms: _259  and  _262
REMARK  105  A    between atoms: _265  and  _267
REMARK  106  A    between atoms: _267  and  _268
REMARK  107  A    between atoms: _267  and  _270
REMARK  108  A    between atoms: _270  and  _271
REMARK  109  A    between atoms: _271  and  _272
REMARK  110  A    between atoms: _272  and  _273
REMARK  111  A    between atoms: _273  and  _274
REMARK  112  A    between atoms: _278  and  _280
REMARK  113  A    between atoms: _280  and  _281
REMARK  114  A    between atoms: _280  and  _283
REMARK  115  A    between atoms: _283  and  _284
REMARK  116  A    between atoms: _284  and  _285
REMARK  117  A    between atoms: _287  and  _289
REMARK  118  A    between atoms: _289  and  _290
REMARK  119  A    between atoms: _289  and  _292
REMARK  120  A    between atoms: _292  and  _293
REMARK  121  A    between atoms: _295  and  _297
REMARK  122  A    between atoms: _297  and  _298
REMARK  123  A    between atoms: _300  and  _302
REMARK  124  A    between atoms: _302  and  _303
REMARK  125  A    between atoms: _302  and  _305
REMARK  126  A    between atoms: _305  and  _306
REMARK  127  A    between atoms: _306  and  _441
REMARK  128  A    between atoms: _307  and  _309
REMARK  129  A    between atoms: _309  and  _310
REMARK  130  A    between atoms: _309  and  _312
REMARK  131  A    between atoms: _312  and  _313
REMARK  132  A    between atoms: _313  and  _314
REMARK  133  A    between atoms: _319  and  _321
REMARK  134  A    between atoms: _321  and  _322
REMARK  135  A    between atoms: _324  and  _326
REMARK  136  A    between atoms: _326  and  _327
REMARK  137  A    between atoms: _326  and  _329
REMARK  138  A    between atoms: _329  and  _330
REMARK  139  A    between atoms: _333  and  _335
REMARK  140  A    between atoms: _335  and  _336
REMARK  141  A    between atoms: _335  and  _338
REMARK  142  A    between atoms: _338  and  _339
REMARK  143  A    between atoms: _341  and  _343
REMARK  144  A    between atoms: _343  and  _344
REMARK  145  A    between atoms: _346  and  _348
REMARK  146  A    between atoms: _348  and  _349
REMARK  147  A    between atoms: _351  and  _353
REMARK  148  A    between atoms: _353  and  _354
REMARK  149  A    between atoms: _353  and  _356
REMARK  150  A    between atoms: _359  and  _361
REMARK  151  A    between atoms: _361  and  _362
REMARK  152  A    between atoms: _361  and  _364
REMARK  153  A    between atoms: _364  and  _365
REMARK  154  A    between atoms: _368  and  _370
REMARK  155  A    between atoms: _370  and  _371
REMARK  156  A    between atoms: _370  and  _373
REMARK  157  A    between atoms: _373  and  _374
REMARK  158  A    between atoms: _376  and  _378
REMARK  159  A    between atoms: _378  and  _379
REMARK  160  A    between atoms: _378  and  _381
REMARK  161  A    between atoms: _381  and  _382
REMARK  162  A    between atoms: _388  and  _390
REMARK  163  A    between atoms: _390  and  _391
REMARK  164  A    between atoms: _390  and  _393
REMARK  165  A    between atoms: _396  and  _398
REMARK  166  A    between atoms: _398  and  _399
REMARK  167  A    between atoms: _398  and  _401
REMARK  168  A    between atoms: _401  and  _402
REMARK  169  A    between atoms: _404  and  _406
REMARK  170  A    between atoms: _406  and  _407
REMARK  171  A    between atoms: _406  and  _409
REMARK  172  A    between atoms: _409  and  _410
REMARK  173  A    between atoms: _410  and  _411
REMARK  174  A    between atoms: _411  and  _412
REMARK  175  A    between atoms: _421  and  _423
REMARK  176  A    between atoms: _423  and  _424
REMARK  177  A    between atoms: _423  and  _426
REMARK  178  A    between atoms: _426  and  _427
REMARK  179  A    between atoms: _430  and  _432
REMARK  180  A    between atoms: _432  and  _433
REMARK  181  A    between atoms: _435  and  _437
REMARK  182  A    between atoms: _437  and  _438
REMARK  183  A    between atoms: _437  and  _440
REMARK  184  A    between atoms: _440  and  _441
REMARK  185  A    between atoms: _442  and  _444
REMARK  186  A    between atoms: _444  and  _445
REMARK  187  A    between atoms: _444  and  _447
REMARK  188  A    between atoms: _447  and  _448
REMARK  189  A    between atoms: _453  and  _455
REMARK  190  A    between atoms: _455  and  _456
REMARK  191  A    between atoms: _455  and  _458
REMARK  192  A    between atoms: _461  and  _463
REMARK  193  A    between atoms: _463  and  _464
REMARK  194  A    between atoms: _463  and  _466
REMARK  195  A    between atoms: _466  and  _467
REMARK  196  A    between atoms: _470  and  _472
REMARK  197  A    between atoms: _472  and  _473
REMARK  198  A    between atoms: _472  and  _475
REMARK  199  A    between atoms: _478  and  _480
REMARK  200  A    between atoms: _480  and  _481
REMARK  201  A    between atoms: _480  and  _483
REMARK  202  A    between atoms: _483  and  _484
REMARK  203  A    between atoms: _490  and  _492
REMARK  204  A    between atoms: _492  and  _493
REMARK  205  A    between atoms: _492  and  _495
REMARK  206  A    between atoms: _495  and  _496
REMARK                            x       y       z     vdW  Elec       q    Type
REMARK                         _______ _______ _______ _____ _____    ______ ____
ROOT
ATOM      1  O   HOH     1      45.452  30.812  42.008  0.00  0.00    +0.000 OA
ENDROOT
TORSDOF 0
REMARK  Name = ../refined-set-2016/1bma/1bma_pocket.pdb
REMARK  206 active torsions:
REMARK  status: ('A' for Active; 'I' for Inactive)
REMARK    1  A    between atoms: _1  and  _5
REMARK    2  A    between atoms: _5  and  _6
REMARK    3  A    between atoms: _5  and  _8
REMARK    4  A    between atoms: _11  and  _13
REMARK    5  A    between atoms: _13  and  _14
REMARK    6  A    between atoms: _13  and  _16
REMARK    7  A    between atoms: _16  and  _17
REMARK    8  A    between atoms: _20  and  _22
REMARK    9  A    between atoms: _22  and  _23
REMARK   10  A    between atoms: _22  and  _25
REMARK   11  A    between atoms: _25  and  _26
REMARK   12  A    between atoms: _26  and  _61
REMARK   13  A    between atoms: _27  and  _29
REMARK   14  A    between atoms: _29  and  _30
REMARK   15  A    between atoms: _32  and  _34
REMARK   16  A    between atoms: _34  and  _35
REMARK   17  A    between atoms: _38  and  _40
REMARK   18  A    between atoms: _40  and  _41
REMARK   19  A    between atoms: _44  and  _46
REMARK   20  A    between atoms: _46  and  _47
REMARK   21  A    between atoms: _46  and  _49
REMARK   22  A    between atoms: _49  and  _50
REMARK   23  A    between atoms: _55  and  _57
REMARK   24  A    between atoms: _57  and  _58
REMARK   25  A    between atoms: _57  and  _60
REMARK   26  A    between atoms: _60  and  _61
REMARK   27  A    between atoms: _62  and  _64
REMARK   28  A    between atoms: _64  and  _65
REMARK   29  A    between atoms: _64  and  _67
REMARK   30  A    between atoms: _67  and  _68
REMARK   31  A    between atoms: _71  and  _73
REMARK   32  A    between atoms: _73  and  _74
REMARK   33  A    between atoms: _73  and  _76
REMARK   34  A    between atoms: _76  and  _77
REMARK   35  A    between atoms: _87  and  _89
REMARK   36  A    between atoms: _89  and  _90
REMARK   37  A    between atoms: _89  and  _92
REMARK   38  A    between atoms: _92  and  _93
REMARK   39  A    between atoms: _98  and  _100
REMARK   40  A    between atoms: _100  and  _101
REMARK   41  A    between atoms: _100  and  _103
REMARK   42  A    between atoms: _103  and  _104
REMARK   43  A    between atoms: _107  and  _109
REMARK   44  A    between atoms: _109  and  _110
REMARK   45  A    between atoms: _109  and  _112
REMARK   46  A    between atoms: _112  and  _113
REMARK   47  A    between atoms: _116  and  _118
REMARK   48  A    between atoms: _118  and  _119
REMARK   49  A    between atoms: _118  and  _121
REMARK   50  A    between atoms: _121  and  _122
REMARK   51  A    between atoms: _125  and  _127
REMARK   52  A    between atoms: _127  and  _128
REMARK   53  A    between atoms: _127  and  _130
REMARK   54  A    between atoms: _133  and  _135
REMARK   55  A    between atoms: _135  and  _136
REMARK   56  A    between atoms: _139  and  _141
REMARK   57  A    between atoms: _141  and  _142
REMARK   58  A    between atoms: _145  and  _147
REMARK   59  A    between atoms: _147  and  _148
REMARK   60  A    between atoms: _150  and  _152
REMARK   61  A    between atoms: _152  and  _153
REMARK   62  A    between atoms: _152  and  _155
REMARK   63  A    between atoms: _155  and  _156
REMARK   64  A    between atoms: _159  and  _161
REMARK   65  A    between atoms: _161  and  _162
REMARK   66  A    between atoms: _161  and  _164
REMARK   67  A    between atoms: _164  and  _165
REMARK   68  A    between atoms: _168  and  _170
REMARK   69  A    between atoms: _170  and  _171
REMARK   70  A    between atoms: _173  and  _175
REMARK   71  A    between atoms: _175  and  _176
REMARK   72  A    between atoms: _175  and  _178
REMARK   73  A    between atoms: _178  and  _179
REMARK   74  A    between atoms: _182  and  _184
REMARK   75  A    between atoms: _184  and  _185
REMARK   76  A    between atoms: _184  and  _187
REMARK   77  A    between atoms: _187  and  _188
REMARK   78  A    between atoms: _188  and  _189
REMARK   79  A    between atoms: _189  and  _190
REMARK   80  A    between atoms: _199  and  _201
REMARK   81  A    between atoms: _201  and  _202
REMARK   82  A    between atoms: _201  and  _204
REMARK   83  A    between atoms: _204  and  _205
REMARK   84  A    between atoms: _208  and  _210
REMARK   85  A    between atoms: _210  and  _211
REMARK   86  A    between atoms: _210  and  _213
REMARK   87  A    between atoms: _213  and  _214
REMARK   88  A    between atoms: _219  and  _221
REMARK   89  A    between atoms: _221  and  _222
REMARK   90  A    between atoms: _224  and  _226
REMARK   91  A    between atoms: _226  and  _227
REMARK   92  A    between atoms: _226  and  _229
REMARK   93  A    between atoms: _229  and  _230
REMARK   94  A    between atoms: _240  and  _242
REMARK   95  A    between atoms: _242  and  _243
REMARK   96  A    between atoms: _242  and  _245
REMARK   97  A    between atoms: _245  and  _246
REMARK   98  A    between atoms: _248  and  _250
REMARK   99  A    between atoms: _250  and  _251
REMARK  100  A    between atoms: _250  and  _253
REMARK  101  A    between atoms: _253  and  _254
REMARK  102  A    between atoms: _257  and  _259
REMARK  103  A    between atoms: _259  and  _260
REMARK  104  A    between atoms: _259  and  _262
REMARK  105  A    between atoms: _265  and  _267
REMARK  106  A    between atoms: _267  and  _268
REMARK  107  A    between atoms: _267  and  _270
REMARK  108  A    between atoms: _270  and  _271
REMARK  109  A    between atoms: _271  and  _272
REMARK  110  A    between atoms: _272  and  _273
REMARK  111  A    between atoms: _273  and  _274
REMARK  112  A    between atoms: _278  and  _280
REMARK  113  A    between atoms: _280  and  _281
REMARK  114  A    between atoms: _280  and  _283
REMARK  115  A    between atoms: _283  and  _284
REMARK  116  A    between atoms: _284  and  _285
REMARK  117  A    between atoms: _287  and  _289
REMARK  118  A    between atoms: _289  and  _290
REMARK  119  A    between atoms: _289  and  _292
REMARK  120  A    between atoms: _292  and  _293
REMARK  121  A    between atoms: _295  and  _297
REMARK  122  A    between atoms: _297  and  _298
REMARK  123  A    between atoms: _300  and  _302
REMARK  124  A    between atoms: _302  and  _303
REMARK  125  A    between atoms: _302  and  _305
REMARK  126  A    between atoms: _305  and  _306
REMARK  127  A    between atoms: _306  and  _441
REMARK  128  A    between atoms: _307  and  _309
REMARK  129  A    between atoms: _309  and  _310
REMARK  130  A    between atoms: _309  and  _312
REMARK  131  A    between atoms: _312  and  _313
REMARK  132  A    between atoms: _313  and  _314
REMARK  133  A    between atoms: _319  and  _321
REMARK  134  A    between atoms: _321  and  _322
REMARK  135  A    between atoms: _324  and  _326
REMARK  136  A    between atoms: _326  and  _327
REMARK  137  A    between atoms: _326  and  _329
REMARK  138  A    between atoms: _329  and  _330
REMARK  139  A    between atoms: _333  and  _335
REMARK  140  A    between atoms: _335  and  _336
REMARK  141  A    between atoms: _335  and  _338
REMARK  142  A    between atoms: _338  and  _339
REMARK  143  A    between atoms: _341  and  _343
REMARK  144  A    between atoms: _343  and  _344
REMARK  145  A    between atoms: _346  and  _348
REMARK  146  A    between atoms: _348  and  _349
REMARK  147  A    between atoms: _351  and  _353
REMARK  148  A    between atoms: _353  and  _354
REMARK  149  A    between atoms: _353  and  _356
REMARK  150  A    between atoms: _359  and  _361
REMARK  151  A    between atoms: _361  and  _362
REMARK  152  A    between atoms: _361  and  _364
REMARK  153  A    between atoms: _364  and  _365
REMARK  154  A    between atoms: _368  and  _370
REMARK  155  A    between atoms: _370  and  _371
REMARK  156  A    between atoms: _370  and  _373
REMARK  157  A    between atoms: _373  and  _374
REMARK  158  A    between atoms: _376  and  _378
REMARK  159  A    between atoms: _378  and  _379
REMARK  160  A    between atoms: _378  and  _381
REMARK  161  A    between atoms: _381  and  _382
REMARK  162  A    between atoms: _388  and  _390
REMARK  163  A    between atoms: _390  and  _391
REMARK  164  A    between atoms: _390  and  _393
REMARK  165  A    between atoms: _396  and  _398
REMARK  166  A    between atoms: _398  and  _399
REMARK  167  A    between atoms: _398  and  _401
REMARK  168  A    between atoms: _401  and  _402
REMARK  169  A    between atoms: _404  and  _406
REMARK  170  A    between atoms: _406  and  _407
REMARK  171  A    between atoms: _406  and  _409
REMARK  172  A    between atoms: _409  and  _410
REMARK  173  A    between atoms: _410  and  _411
REMARK  174  A    between atoms: _411  and  _412
REMARK  175  A    between atoms: _421  and  _423
REMARK  176  A    between atoms: _423  and  _424
REMARK  177  A    between atoms: _423  and  _426
REMARK  178  A    between atoms: _426  and  _427
REMARK  179  A    between atoms: _430  and  _432
REMARK  180  A    between atoms: _432  and  _433
REMARK  181  A    between atoms: _435  and  _437
REMARK  182  A    between atoms: _437  and  _438
REMARK  183  A    between atoms: _437  and  _440
REMARK  184  A    between atoms: _440  and  _441
REMARK  185  A    between atoms: _442  and  _444
REMARK  186  A    between atoms: _444  and  _445
REMARK  187  A    between atoms: _444  and  _447
REMARK  188  A    between atoms: _447  and  _448
REMARK  189  A    between atoms: _453  and  _455
REMARK  190  A    between atoms: _455  and  _456
REMARK  191  A    between atoms: _455  and  _458
REMARK  192  A    between atoms: _461  and  _463
REMARK  193  A    between atoms: _463  and  _464
REMARK  194  A    between atoms: _463  and  _466
REMARK  195  A    between atoms: _466  and  _467
REMARK  196  A    between atoms: _470  and  _472
REMARK  197  A    between atoms: _472  and  _473
REMARK  198  A    between atoms: _472  and  _475
REMARK  199  A    between atoms: _478  and  _480
REMARK  200  A    between atoms: _480  and  _481
REMARK  201  A    between atoms: _480  and  _483
REMARK  202  A    between atoms: _483  and  _484
REMARK  203  A    between atoms: _490  and  _492
REMARK  204  A    between atoms: _492  and  _493
REMARK  205  A    between atoms: _492  and  _495
REMARK  206  A    between atoms: _495  and  _496
REMARK                            x       y       z     vdW  Elec       q    Type
REMARK                         _______ _______ _______ _____ _____    ______ ____
ROOT
ATOM      1  O   HOH     1      47.449  30.520  39.380  0.00  0.00    +0.000 OA
ENDROOT
TORSDOF 0
REMARK  Name = ../refined-set-2016/1bma/1bma_pocket.pdb
REMARK  206 active torsions:
REMARK  status: ('A' for Active; 'I' for Inactive)
REMARK    1  A    between atoms: _1  and  _5
REMARK    2  A    between atoms: _5  and  _6
REMARK    3  A    between atoms: _5  and  _8
REMARK    4  A    between atoms: _11  and  _13
REMARK    5  A    between atoms: _13  and  _14
REMARK    6  A    between atoms: _13  and  _16
REMARK    7  A    between atoms: _16  and  _17
REMARK    8  A    between atoms: _20  and  _22
REMARK    9  A    between atoms: _22  and  _23
REMARK   10  A    between atoms: _22  and  _25
REMARK   11  A    between atoms: _25  and  _26
REMARK   12  A    between atoms: _26  and  _61
REMARK   13  A    between atoms: _27  and  _29
REMARK   14  A    between atoms: _29  and  _30
REMARK   15  A    between atoms: _32  and  _34
REMARK   16  A    between atoms: _34  and  _35
REMARK   17  A    between atoms: _38  and  _40
REMARK   18  A    between atoms: _40  and  _41
REMARK   19  A    between atoms: _44  and  _46
REMARK   20  A    between atoms: _46  and  _47
REMARK   21  A    between atoms: _46  and  _49
REMARK   22  A    between atoms: _49  and  _50
REMARK   23  A    between atoms: _55  and  _57
REMARK   24  A    between atoms: _57  and  _58
REMARK   25  A    between atoms: _57  and  _60
REMARK   26  A    between atoms: _60  and  _61
REMARK   27  A    between atoms: _62  and  _64
REMARK   28  A    between atoms: _64  and  _65
REMARK   29  A    between atoms: _64  and  _67
REMARK   30  A    between atoms: _67  and  _68
REMARK   31  A    between atoms: _71  and  _73
REMARK   32  A    between atoms: _73  and  _74
REMARK   33  A    between atoms: _73  and  _76
REMARK   34  A    between atoms: _76  and  _77
REMARK   35  A    between atoms: _87  and  _89
REMARK   36  A    between atoms: _89  and  _90
REMARK   37  A    between atoms: _89  and  _92
REMARK   38  A    between atoms: _92  and  _93
REMARK   39  A    between atoms: _98  and  _100
REMARK   40  A    between atoms: _100  and  _101
REMARK   41  A    between atoms: _100  and  _103
REMARK   42  A    between atoms: _103  and  _104
REMARK   43  A    between atoms: _107  and  _109
REMARK   44  A    between atoms: _109  and  _110
REMARK   45  A    between atoms: _109  and  _112
REMARK   46  A    between atoms: _112  and  _113
REMARK   47  A    between atoms: _116  and  _118
REMARK   48  A    between atoms: _118  and  _119
REMARK   49  A    between atoms: _118  and  _121
REMARK   50  A    between atoms: _121  and  _122
REMARK   51  A    between atoms: _125  and  _127
REMARK   52  A    between atoms: _127  and  _128
REMARK   53  A    between atoms: _127  and  _130
REMARK   54  A    between atoms: _133  and  _135
REMARK   55  A    between atoms: _135  and  _136
REMARK   56  A    between atoms: _139  and  _141
REMARK   57  A    between atoms: _141  and  _142
REMARK   58  A    between atoms: _145  and  _147
REMARK   59  A    between atoms: _147  and  _148
REMARK   60  A    between atoms: _150  and  _152
REMARK   61  A    between atoms: _152  and  _153
REMARK   62  A    between atoms: _152  and  _155
REMARK   63  A    between atoms: _155  and  _156
REMARK   64  A    between atoms: _159  and  _161
REMARK   65  A    between atoms: _161  and  _162
REMARK   66  A    between atoms: _161  and  _164
REMARK   67  A    between atoms: _164  and  _165
REMARK   68  A    between atoms: _168  and  _170
REMARK   69  A    between atoms: _170  and  _171
REMARK   70  A    between atoms: _173  and  _175
REMARK   71  A    between atoms: _175  and  _176
REMARK   72  A    between atoms: _175  and  _178
REMARK   73  A    between atoms: _178  and  _179
REMARK   74  A    between atoms: _182  and  _184
REMARK   75  A    between atoms: _184  and  _185
REMARK   76  A    between atoms: _184  and  _187
REMARK   77  A    between atoms: _187  and  _188
REMARK   78  A    between atoms: _188  and  _189
REMARK   79  A    between atoms: _189  and  _190
REMARK   80  A    between atoms: _199  and  _201
REMARK   81  A    between atoms: _201  and  _202
REMARK   82  A    between atoms: _201  and  _204
REMARK   83  A    between atoms: _204  and  _205
REMARK   84  A    between atoms: _208  and  _210
REMARK   85  A    between atoms: _210  and  _211
REMARK   86  A    between atoms: _210  and  _213
REMARK   87  A    between atoms: _213  and  _214
REMARK   88  A    between atoms: _219  and  _221
REMARK   89  A    between atoms: _221  and  _222
REMARK   90  A    between atoms: _224  and  _226
REMARK   91  A    between atoms: _226  and  _227
REMARK   92  A    between atoms: _226  and  _229
REMARK   93  A    between atoms: _229  and  _230
REMARK   94  A    between atoms: _240  and  _242
REMARK   95  A    between atoms: _242  and  _243
REMARK   96  A    between atoms: _242  and  _245
REMARK   97  A    between atoms: _245  and  _246
REMARK   98  A    between atoms: _248  and  _250
REMARK   99  A    between atoms: _250  and  _251
REMARK  100  A    between atoms: _250  and  _253
REMARK  101  A    between atoms: _253  and  _254
REMARK  102  A    between atoms: _257  and  _259
REMARK  103  A    between atoms: _259  and  _260
REMARK  104  A    between atoms: _259  and  _262
REMARK  105  A    between atoms: _265  and  _267
REMARK  106  A    between atoms: _267  and  _268
REMARK  107  A    between atoms: _267  and  _270
REMARK  108  A    between atoms: _270  and  _271
REMARK  109  A    between atoms: _271  and  _272
REMARK  110  A    between atoms: _272  and  _273
REMARK  111  A    between atoms: _273  and  _274
REMARK  112  A    between atoms: _278  and  _280
REMARK  113  A    between atoms: _280  and  _281
REMARK  114  A    between atoms: _280  and  _283
REMARK  115  A    between atoms: _283  and  _284
REMARK  116  A    between atoms: _284  and  _285
REMARK  117  A    between atoms: _287  and  _289
REMARK  118  A    between atoms: _289  and  _290
REMARK  119  A    between atoms: _289  and  _292
REMARK  120  A    between atoms: _292  and  _293
REMARK  121  A    between atoms: _295  and  _297
REMARK  122  A    between atoms: _297  and  _298
REMARK  123  A    between atoms: _300  and  _302
REMARK  124  A    between atoms: _302  and  _303
REMARK  125  A    between atoms: _302  and  _305
REMARK  126  A    between atoms: _305  and  _306
REMARK  127  A    between atoms: _306  and  _441
REMARK  128  A    between atoms: _307  and  _309
REMARK  129  A    between atoms: _309  and  _310
REMARK  130  A    between atoms: _309  and  _312
REMARK  131  A    between atoms: _312  and  _313
REMARK  132  A    between atoms: _313  and  _314
REMARK  133  A    between atoms: _319  and  _321
REMARK  134  A    between atoms: _321  and  _322
REMARK  135  A    between atoms: _324  and  _326
REMARK  136  A    between atoms: _326  and  _327
REMARK  137  A    between atoms: _326  and  _329
REMARK  138  A    between atoms: _329  and  _330
REMARK  139  A    between atoms: _333  and  _335
REMARK  140  A    between atoms: _335  and  _336
REMARK  141  A    between atoms: _335  and  _338
REMARK  142  A    between atoms: _338  and  _339
REMARK  143  A    between atoms: _341  and  _343
REMARK  144  A    between atoms: _343  and  _344
REMARK  145  A    between atoms: _346  and  _348
REMARK  146  A    between atoms: _348  and  _349
REMARK  147  A    between atoms: _351  and  _353
REMARK  148  A    between atoms: _353  and  _354
REMARK  149  A    between atoms: _353  and  _356
REMARK  150  A    between atoms: _359  and  _361
REMARK  151  A    between atoms: _361  and  _362
REMARK  152  A    between atoms: _361  and  _364
REMARK  153  A    between atoms: _364  and  _365
REMARK  154  A    between atoms: _368  and  _370
REMARK  155  A    between atoms: _370  and  _371
REMARK  156  A    between atoms: _370  and  _373
REMARK  157  A    between atoms: _373  and  _374
REMARK  158  A    between atoms: _376  and  _378
REMARK  159  A    between atoms: _378  and  _379
REMARK  160  A    between atoms: _378  and  _381
REMARK  161  A    between atoms: _381  and  _382
REMARK  162  A    between atoms: _388  and  _390
REMARK  163  A    between atoms: _390  and  _391
REMARK  164  A    between atoms: _390  and  _393
REMARK  165  A    between atoms: _396  and  _398
REMARK  166  A    between atoms: _398  and  _399
REMARK  167  A    between atoms: _398  and  _401
REMARK  168  A    between atoms: _401  and  _402
REMARK  169  A    between atoms: _404  and  _406
REMARK  170  A    between atoms: _406  and  _407
REMARK  171  A    between atoms: _406  and  _409
REMARK  172  A    between atoms: _409  and  _410
REMARK  173  A    between atoms: _410  and  _411
REMARK  174  A    between atoms: _411  and  _412
REMARK  175  A    between atoms: _421  and  _423
REMARK  176  A    between atoms: _423  and  _424
REMARK  177  A    between atoms: _423  and  _426
REMARK  178  A    between atoms: _426  and  _427
REMARK  179  A    between atoms: _430  and  _432
REMARK  180  A    between atoms: _432  and  _433
REMARK  181  A    between atoms: _435  and  _437
REMARK  182  A    between atoms: _437  and  _438
REMARK  183  A    between atoms: _437  and  _440
REMARK  184  A    between atoms: _440  and  _441
REMARK  185  A    between atoms: _442  and  _444
REMARK  186  A    between atoms: _444  and  _445
REMARK  187  A    between atoms: _444  and  _447
REMARK  188  A    between atoms: _447  and  _448
REMARK  189  A    between atoms: _453  and  _455
REMARK  190  A    between atoms: _455  and  _456
REMARK  191  A    between atoms: _455  and  _458
REMARK  192  A    between atoms: _461  and  _463
REMARK  193  A    between atoms: _463  and  _464
REMARK  194  A    between atoms: _463  and  _466
REMARK  195  A    between atoms: _466  and  _467
REMARK  196  A    between atoms: _470  and  _472
REMARK  197  A    between atoms: _472  and  _473
REMARK  198  A    between atoms: _472  and  _475
REMARK  199  A    between atoms: _478  and  _480
REMARK  200  A    between atoms: _480  and  _481
REMARK  201  A    between atoms: _480  and  _483
REMARK  202  A    between atoms: _483  and  _484
REMARK  203  A    between atoms: _490  and  _492
REMARK  204  A    between atoms: _492  and  _493
REMARK  205  A    between atoms: _492  and  _495
REMARK  206  A    between atoms: _495  and  _496
REMARK                            x       y       z     vdW  Elec       q    Type
REMARK                         _______ _______ _______ _____ _____    ______ ____
ROOT
ATOM      1  O   HOH     1      48.283  30.372  36.744  0.00  0.00    +0.000 OA
ENDROOT
TORSDOF 0
REMARK  Name = ../refined-set-2016/1bma/1bma_pocket.pdb
REMARK  206 active torsions:
REMARK  status: ('A' for Active; 'I' for Inactive)
REMARK    1  A    between atoms: _1  and  _5
REMARK    2  A    between atoms: _5  and  _6
REMARK    3  A    between atoms: _5  and  _8
REMARK    4  A    between atoms: _11  and  _13
REMARK    5  A    between atoms: _13  and  _14
REMARK    6  A    between atoms: _13  and  _16
REMARK    7  A    between atoms: _16  and  _17
REMARK    8  A    between atoms: _20  and  _22
REMARK    9  A    between atoms: _22  and  _23
REMARK   10  A    between atoms: _22  and  _25
REMARK   11  A    between atoms: _25  and  _26
REMARK   12  A    between atoms: _26  and  _61
REMARK   13  A    between atoms: _27  and  _29
REMARK   14  A    between atoms: _29  and  _30
REMARK   15  A    between atoms: _32  and  _34
REMARK   16  A    between atoms: _34  and  _35
REMARK   17  A    between atoms: _38  and  _40
REMARK   18  A    between atoms: _40  and  _41
REMARK   19  A    between atoms: _44  and  _46
REMARK   20  A    between atoms: _46  and  _47
REMARK   21  A    between atoms: _46  and  _49
REMARK   22  A    between atoms: _49  and  _50
REMARK   23  A    between atoms: _55  and  _57
REMARK   24  A    between atoms: _57  and  _58
REMARK   25  A    between atoms: _57  and  _60
REMARK   26  A    between atoms: _60  and  _61
REMARK   27  A    between atoms: _62  and  _64
REMARK   28  A    between atoms: _64  and  _65
REMARK   29  A    between atoms: _64  and  _67
REMARK   30  A    between atoms: _67  and  _68
REMARK   31  A    between atoms: _71  and  _73
REMARK   32  A    between atoms: _73  and  _74
REMARK   33  A    between atoms: _73  and  _76
REMARK   34  A    between atoms: _76  and  _77
REMARK   35  A    between atoms: _87  and  _89
REMARK   36  A    between atoms: _89  and  _90
REMARK   37  A    between atoms: _89  and  _92
REMARK   38  A    between atoms: _92  and  _93
REMARK   39  A    between atoms: _98  and  _100
REMARK   40  A    between atoms: _100  and  _101
REMARK   41  A    between atoms: _100  and  _103
REMARK   42  A    between atoms: _103  and  _104
REMARK   43  A    between atoms: _107  and  _109
REMARK   44  A    between atoms: _109  and  _110
REMARK   45  A    between atoms: _109  and  _112
REMARK   46  A    between atoms: _112  and  _113
REMARK   47  A    between atoms: _116  and  _118
REMARK   48  A    between atoms: _118  and  _119
REMARK   49  A    between atoms: _118  and  _121
REMARK   50  A    between atoms: _121  and  _122
REMARK   51  A    between atoms: _125  and  _127
REMARK   52  A    between atoms: _127  and  _128
REMARK   53  A    between atoms: _127  and  _130
REMARK   54  A    between atoms: _133  and  _135
REMARK   55  A    between atoms: _135  and  _136
REMARK   56  A    between atoms: _139  and  _141
REMARK   57  A    between atoms: _141  and  _142
REMARK   58  A    between atoms: _145  and  _147
REMARK   59  A    between atoms: _147  and  _148
REMARK   60  A    between atoms: _150  and  _152
REMARK   61  A    between atoms: _152  and  _153
REMARK   62  A    between atoms: _152  and  _155
REMARK   63  A    between atoms: _155  and  _156
REMARK   64  A    between atoms: _159  and  _161
REMARK   65  A    between atoms: _161  and  _162
REMARK   66  A    between atoms: _161  and  _164
REMARK   67  A    between atoms: _164  and  _165
REMARK   68  A    between atoms: _168  and  _170
REMARK   69  A    between atoms: _170  and  _171
REMARK   70  A    between atoms: _173  and  _175
REMARK   71  A    between atoms: _175  and  _176
REMARK   72  A    between atoms: _175  and  _178
REMARK   73  A    between atoms: _178  and  _179
REMARK   74  A    between atoms: _182  and  _184
REMARK   75  A    between atoms: _184  and  _185
REMARK   76  A    between atoms: _184  and  _187
REMARK   77  A    between atoms: _187  and  _188
REMARK   78  A    between atoms: _188  and  _189
REMARK   79  A    between atoms: _189  and  _190
REMARK   80  A    between atoms: _199  and  _201
REMARK   81  A    between atoms: _201  and  _202
REMARK   82  A    between atoms: _201  and  _204
REMARK   83  A    between atoms: _204  and  _205
REMARK   84  A    between atoms: _208  and  _210
REMARK   85  A    between atoms: _210  and  _211
REMARK   86  A    between atoms: _210  and  _213
REMARK   87  A    between atoms: _213  and  _214
REMARK   88  A    between atoms: _219  and  _221
REMARK   89  A    between atoms: _221  and  _222
REMARK   90  A    between atoms: _224  and  _226
REMARK   91  A    between atoms: _226  and  _227
REMARK   92  A    between atoms: _226  and  _229
REMARK   93  A    between atoms: _229  and  _230
REMARK   94  A    between atoms: _240  and  _242
REMARK   95  A    between atoms: _242  and  _243
REMARK   96  A    between atoms: _242  and  _245
REMARK   97  A    between atoms: _245  and  _246
REMARK   98  A    between atoms: _248  and  _250
REMARK   99  A    between atoms: _250  and  _251
REMARK  100  A    between atoms: _250  and  _253
REMARK  101  A    between atoms: _253  and  _254
REMARK  102  A    between atoms: _257  and  _259
REMARK  103  A    between atoms: _259  and  _260
REMARK  104  A    between atoms: _259  and  _262
REMARK  105  A    between atoms: _265  and  _267
REMARK  106  A    between atoms: _267  and  _268
REMARK  107  A    between atoms: _267  and  _270
REMARK  108  A    between atoms: _270  and  _271
REMARK  109  A    between atoms: _271  and  _272
REMARK  110  A    between atoms: _272  and  _273
REMARK  111  A    between atoms: _273  and  _274
REMARK  112  A    between atoms: _278  and  _280
REMARK  113  A    between atoms: _280  and  _281
REMARK  114  A    between atoms: _280  and  _283
REMARK  115  A    between atoms: _283  and  _284
REMARK  116  A    between atoms: _284  and  _285
REMARK  117  A    between atoms: _287  and  _289
REMARK  118  A    between atoms: _289  and  _290
REMARK  119  A    between atoms: _289  and  _292
REMARK  120  A    between atoms: _292  and  _293
REMARK  121  A    between atoms: _295  and  _297
REMARK  122  A    between atoms: _297  and  _298
REMARK  123  A    between atoms: _300  and  _302
REMARK  124  A    between atoms: _302  and  _303
REMARK  125  A    between atoms: _302  and  _305
REMARK  126  A    between atoms: _305  and  _306
REMARK  127  A    between atoms: _306  and  _441
REMARK  128  A    between atoms: _307  and  _309
REMARK  129  A    between atoms: _309  and  _310
REMARK  130  A    between atoms: _309  and  _312
REMARK  131  A    between atoms: _312  and  _313
REMARK  132  A    between atoms: _313  and  _314
REMARK  133  A    between atoms: _319  and  _321
REMARK  134  A    between atoms: _321  and  _322
REMARK  135  A    between atoms: _324  and  _326
REMARK  136  A    between atoms: _326  and  _327
REMARK  137  A    between atoms: _326  and  _329
REMARK  138  A    between atoms: _329  and  _330
REMARK  139  A    between atoms: _333  and  _335
REMARK  140  A    between atoms: _335  and  _336
REMARK  141  A    between atoms: _335  and  _338
REMARK  142  A    between atoms: _338  and  _339
REMARK  143  A    between atoms: _341  and  _343
REMARK  144  A    between atoms: _343  and  _344
REMARK  145  A    between atoms: _346  and  _348
REMARK  146  A    between atoms: _348  and  _349
REMARK  147  A    between atoms: _351  and  _353
REMARK  148  A    between atoms: _353  and  _354
REMARK  149  A    between atoms: _353  and  _356
REMARK  150  A    between atoms: _359  and  _361
REMARK  151  A    between atoms: _361  and  _362
REMARK  152  A    between atoms: _361  and  _364
REMARK  153  A    between atoms: _364  and  _365
REMARK  154  A    between atoms: _368  and  _370
REMARK  155  A    between atoms: _370  and  _371
REMARK  156  A    between atoms: _370  and  _373
REMARK  157  A    between atoms: _373  and  _374
REMARK  158  A    between atoms: _376  and  _378
REMARK  159  A    between atoms: _378  and  _379
REMARK  160  A    between atoms: _378  and  _381
REMARK  161  A    between atoms: _381  and  _382
REMARK  162  A    between atoms: _388  and  _390
REMARK  163  A    between atoms: _390  and  _391
REMARK  164  A    between atoms: _390  and  _393
REMARK  165  A    between atoms: _396  and  _398
REMARK  166  A    between atoms: _398  and  _399
REMARK  167  A    between atoms: _398  and  _401
REMARK  168  A    between atoms: _401  and  _402
REMARK  169  A    between atoms: _404  and  _406
REMARK  170  A    between atoms: _406  and  _407
REMARK  171  A    between atoms: _406  and  _409
REMARK  172  A    between atoms: _409  and  _410
REMARK  173  A    between atoms: _410  and  _411
REMARK  174  A    between atoms: _411  and  _412
REMARK  175  A    between atoms: _421  and  _423
REMARK  176  A    between atoms: _423  and  _424
REMARK  177  A    between atoms: _423  and  _426
REMARK  178  A    between atoms: _426  and  _427
REMARK  179  A    between atoms: _430  and  _432
REMARK  180  A    between atoms: _432  and  _433
REMARK  181  A    between atoms: _435  and  _437
REMARK  182  A    between atoms: _437  and  _438
REMARK  183  A    between atoms: _437  and  _440
REMARK  184  A    between atoms: _440  and  _441
REMARK  185  A    between atoms: _442  and  _444
REMARK  186  A    between atoms: _444  and  _445
REMARK  187  A    between atoms: _444  and  _447
REMARK  188  A    between atoms: _447  and  _448
REMARK  189  A    between atoms: _453  and  _455
REMARK  190  A    between atoms: _455  and  _456
REMARK  191  A    between atoms: _455  and  _458
REMARK  192  A    between atoms: _461  and  _463
REMARK  193  A    between atoms: _463  and  _464
REMARK  194  A    between atoms: _463  and  _466
REMARK  195  A    between atoms: _466  and  _467
REMARK  196  A    between atoms: _470  and  _472
REMARK  197  A    between atoms: _472  and  _473
REMARK  198  A    between atoms: _472  and  _475
REMARK  199  A    between atoms: _478  and  _480
REMARK  200  A    between atoms: _480  and  _481
REMARK  201  A    between atoms: _480  and  _483
REMARK  202  A    between atoms: _483  and  _484
REMARK  203  A    between atoms: _490  and  _492
REMARK  204  A    between atoms: _492  and  _493
REMARK  205  A    between atoms: _492  and  _495
REMARK  206  A    between atoms: _495  and  _496
REMARK                            x       y       z     vdW  Elec       q    Type
REMARK                         _______ _______ _______ _____ _____    ______ ____
ROOT
ATOM      1  O   HOH     1      41.167  18.810  46.507  0.00  0.00    +0.000 OA
ENDROOT
TORSDOF 0
REMARK  Name = ../refined-set-2016/1bma/1bma_pocket.pdb
REMARK  206 active torsions:
REMARK  status: ('A' for Active; 'I' for Inactive)
REMARK    1  A    between atoms: _1  and  _5
REMARK    2  A    between atoms: _5  and  _6
REMARK    3  A    between atoms: _5  and  _8
REMARK    4  A    between atoms: _11  and  _13
REMARK    5  A    between atoms: _13  and  _14
REMARK    6  A    between atoms: _13  and  _16
REMARK    7  A    between atoms: _16  and  _17
REMARK    8  A    between atoms: _20  and  _22
REMARK    9  A    between atoms: _22  and  _23
REMARK   10  A    between atoms: _22  and  _25
REMARK   11  A    between atoms: _25  and  _26
REMARK   12  A    between atoms: _26  and  _61
REMARK   13  A    between atoms: _27  and  _29
REMARK   14  A    between atoms: _29  and  _30
REMARK   15  A    between atoms: _32  and  _34
REMARK   16  A    between atoms: _34  and  _35
REMARK   17  A    between atoms: _38  and  _40
REMARK   18  A    between atoms: _40  and  _41
REMARK   19  A    between atoms: _44  and  _46
REMARK   20  A    between atoms: _46  and  _47
REMARK   21  A    between atoms: _46  and  _49
REMARK   22  A    between atoms: _49  and  _50
REMARK   23  A    between atoms: _55  and  _57
REMARK   24  A    between atoms: _57  and  _58
REMARK   25  A    between atoms: _57  and  _60
REMARK   26  A    between atoms: _60  and  _61
REMARK   27  A    between atoms: _62  and  _64
REMARK   28  A    between atoms: _64  and  _65
REMARK   29  A    between atoms: _64  and  _67
REMARK   30  A    between atoms: _67  and  _68
REMARK   31  A    between atoms: _71  and  _73
REMARK   32  A    between atoms: _73  and  _74
REMARK   33  A    between atoms: _73  and  _76
REMARK   34  A    between atoms: _76  and  _77
REMARK   35  A    between atoms: _87  and  _89
REMARK   36  A    between atoms: _89  and  _90
REMARK   37  A    between atoms: _89  and  _92
REMARK   38  A    between atoms: _92  and  _93
REMARK   39  A    between atoms: _98  and  _100
REMARK   40  A    between atoms: _100  and  _101
REMARK   41  A    between atoms: _100  and  _103
REMARK   42  A    between atoms: _103  and  _104
REMARK   43  A    between atoms: _107  and  _109
REMARK   44  A    between atoms: _109  and  _110
REMARK   45  A    between atoms: _109  and  _112
REMARK   46  A    between atoms: _112  and  _113
REMARK   47  A    between atoms: _116  and  _118
REMARK   48  A    between atoms: _118  and  _119
REMARK   49  A    between atoms: _118  and  _121
REMARK   50  A    between atoms: _121  and  _122
REMARK   51  A    between atoms: _125  and  _127
REMARK   52  A    between atoms: _127  and  _128
REMARK   53  A    between atoms: _127  and  _130
REMARK   54  A    between atoms: _133  and  _135
REMARK   55  A    between atoms: _135  and  _136
REMARK   56  A    between atoms: _139  and  _141
REMARK   57  A    between atoms: _141  and  _142
REMARK   58  A    between atoms: _145  and  _147
REMARK   59  A    between atoms: _147  and  _148
REMARK   60  A    between atoms: _150  and  _152
REMARK   61  A    between atoms: _152  and  _153
REMARK   62  A    between atoms: _152  and  _155
REMARK   63  A    between atoms: _155  and  _156
REMARK   64  A    between atoms: _159  and  _161
REMARK   65  A    between atoms: _161  and  _162
REMARK   66  A    between atoms: _161  and  _164
REMARK   67  A    between atoms: _164  and  _165
REMARK   68  A    between atoms: _168  and  _170
REMARK   69  A    between atoms: _170  and  _171
REMARK   70  A    between atoms: _173  and  _175
REMARK   71  A    between atoms: _175  and  _176
REMARK   72  A    between atoms: _175  and  _178
REMARK   73  A    between atoms: _178  and  _179
REMARK   74  A    between atoms: _182  and  _184
REMARK   75  A    between atoms: _184  and  _185
REMARK   76  A    between atoms: _184  and  _187
REMARK   77  A    between atoms: _187  and  _188
REMARK   78  A    between atoms: _188  and  _189
REMARK   79  A    between atoms: _189  and  _190
REMARK   80  A    between atoms: _199  and  _201
REMARK   81  A    between atoms: _201  and  _202
REMARK   82  A    between atoms: _201  and  _204
REMARK   83  A    between atoms: _204  and  _205
REMARK   84  A    between atoms: _208  and  _210
REMARK   85  A    between atoms: _210  and  _211
REMARK   86  A    between atoms: _210  and  _213
REMARK   87  A    between atoms: _213  and  _214
REMARK   88  A    between atoms: _219  and  _221
REMARK   89  A    between atoms: _221  and  _222
REMARK   90  A    between atoms: _224  and  _226
REMARK   91  A    between atoms: _226  and  _227
REMARK   92  A    between atoms: _226  and  _229
REMARK   93  A    between atoms: _229  and  _230
REMARK   94  A    between atoms: _240  and  _242
REMARK   95  A    between atoms: _242  and  _243
REMARK   96  A    between atoms: _242  and  _245
REMARK   97  A    between atoms: _245  and  _246
REMARK   98  A    between atoms: _248  and  _250
REMARK   99  A    between atoms: _250  and  _251
REMARK  100  A    between atoms: _250  and  _253
REMARK  101  A    between atoms: _253  and  _254
REMARK  102  A    between atoms: _257  and  _259
REMARK  103  A    between atoms: _259  and  _260
REMARK  104  A    between atoms: _259  and  _262
REMARK  105  A    between atoms: _265  and  _267
REMARK  106  A    between atoms: _267  and  _268
REMARK  107  A    between atoms: _267  and  _270
REMARK  108  A    between atoms: _270  and  _271
REMARK  109  A    between atoms: _271  and  _272
REMARK  110  A    between atoms: _272  and  _273
REMARK  111  A    between atoms: _273  and  _274
REMARK  112  A    between atoms: _278  and  _280
REMARK  113  A    between atoms: _280  and  _281
REMARK  114  A    between atoms: _280  and  _283
REMARK  115  A    between atoms: _283  and  _284
REMARK  116  A    between atoms: _284  and  _285
REMARK  117  A    between atoms: _287  and  _289
REMARK  118  A    between atoms: _289  and  _290
REMARK  119  A    between atoms: _289  and  _292
REMARK  120  A    between atoms: _292  and  _293
REMARK  121  A    between atoms: _295  and  _297
REMARK  122  A    between atoms: _297  and  _298
REMARK  123  A    between atoms: _300  and  _302
REMARK  124  A    between atoms: _302  and  _303
REMARK  125  A    between atoms: _302  and  _305
REMARK  126  A    between atoms: _305  and  _306
REMARK  127  A    between atoms: _306  and  _441
REMARK  128  A    between atoms: _307  and  _309
REMARK  129  A    between atoms: _309  and  _310
REMARK  130  A    between atoms: _309  and  _312
REMARK  131  A    between atoms: _312  and  _313
REMARK  132  A    between atoms: _313  and  _314
REMARK  133  A    between atoms: _319  and  _321
REMARK  134  A    between atoms: _321  and  _322
REMARK  135  A    between atoms: _324  and  _326
REMARK  136  A    between atoms: _326  and  _327
REMARK  137  A    between atoms: _326  and  _329
REMARK  138  A    between atoms: _329  and  _330
REMARK  139  A    between atoms: _333  and  _335
REMARK  140  A    between atoms: _335  and  _336
REMARK  141  A    between atoms: _335  and  _338
REMARK  142  A    between atoms: _338  and  _339
REMARK  143  A    between atoms: _341  and  _343
REMARK  144  A    between atoms: _343  and  _344
REMARK  145  A    between atoms: _346  and  _348
REMARK  146  A    between atoms: _348  and  _349
REMARK  147  A    between atoms: _351  and  _353
REMARK  148  A    between atoms: _353  and  _354
REMARK  149  A    between atoms: _353  and  _356
REMARK  150  A    between atoms: _359  and  _361
REMARK  151  A    between atoms: _361  and  _362
REMARK  152  A    between atoms: _361  and  _364
REMARK  153  A    between atoms: _364  and  _365
REMARK  154  A    between atoms: _368  and  _370
REMARK  155  A    between atoms: _370  and  _371
REMARK  156  A    between atoms: _370  and  _373
REMARK  157  A    between atoms: _373  and  _374
REMARK  158  A    between atoms: _376  and  _378
REMARK  159  A    between atoms: _378  and  _379
REMARK  160  A    between atoms: _378  and  _381
REMARK  161  A    between atoms: _381  and  _382
REMARK  162  A    between atoms: _388  and  _390
REMARK  163  A    between atoms: _390  and  _391
REMARK  164  A    between atoms: _390  and  _393
REMARK  165  A    between atoms: _396  and  _398
REMARK  166  A    between atoms: _398  and  _399
REMARK  167  A    between atoms: _398  and  _401
REMARK  168  A    between atoms: _401  and  _402
REMARK  169  A    between atoms: _404  and  _406
REMARK  170  A    between atoms: _406  and  _407
REMARK  171  A    between atoms: _406  and  _409
REMARK  172  A    between atoms: _409  and  _410
REMARK  173  A    between atoms: _410  and  _411
REMARK  174  A    between atoms: _411  and  _412
REMARK  175  A    between atoms: _421  and  _423
REMARK  176  A    between atoms: _423  and  _424
REMARK  177  A    between atoms: _423  and  _426
REMARK  178  A    between atoms: _426  and  _427
REMARK  179  A    between atoms: _430  and  _432
REMARK  180  A    between atoms: _432  and  _433
REMARK  181  A    between atoms: _435  and  _437
REMARK  182  A    between atoms: _437  and  _438
REMARK  183  A    between atoms: _437  and  _440
REMARK  184  A    between atoms: _440  and  _441
REMARK  185  A    between atoms: _442  and  _444
REMARK  186  A    between atoms: _444  and  _445
REMARK  187  A    between atoms: _444  and  _447
REMARK  188  A    between atoms: _447  and  _448
REMARK  189  A    between atoms: _453  and  _455
REMARK  190  A    between atoms: _455  and  _456
REMARK  191  A    between atoms: _455  and  _458
REMARK  192  A    between atoms: _461  and  _463
REMARK  193  A    between atoms: _463  and  _464
REMARK  194  A    between atoms: _463  and  _466
REMARK  195  A    between atoms: _466  and  _467
REMARK  196  A    between atoms: _470  and  _472
REMARK  197  A    between atoms: _472  and  _473
REMARK  198  A    between atoms: _472  and  _475
REMARK  199  A    between atoms: _478  and  _480
REMARK  200  A    between atoms: _480  and  _481
REMARK  201  A    between atoms: _480  and  _483
REMARK  202  A    between atoms: _483  and  _484
REMARK  203  A    between atoms: _490  and  _492
REMARK  204  A    between atoms: _492  and  _493
REMARK  205  A    between atoms: _492  and  _495
REMARK  206  A    between atoms: _495  and  _496
REMARK                            x       y       z     vdW  Elec       q    Type
REMARK                         _______ _______ _______ _____ _____    ______ ____
ROOT
ATOM      1  O   HOH     1      36.842  25.273  30.915  0.00  0.00    +0.000 OA
ENDROOT
TORSDOF 0
REMARK  Name = ../refined-set-2016/1bma/1bma_pocket.pdb
REMARK  206 active torsions:
REMARK  status: ('A' for Active; 'I' for Inactive)
REMARK    1  A    between atoms: _1  and  _5
REMARK    2  A    between atoms: _5  and  _6
REMARK    3  A    between atoms: _5  and  _8
REMARK    4  A    between atoms: _11  and  _13
REMARK    5  A    between atoms: _13  and  _14
REMARK    6  A    between atoms: _13  and  _16
REMARK    7  A    between atoms: _16  and  _17
REMARK    8  A    between atoms: _20  and  _22
REMARK    9  A    between atoms: _22  and  _23
REMARK   10  A    between atoms: _22  and  _25
REMARK   11  A    between atoms: _25  and  _26
REMARK   12  A    between atoms: _26  and  _61
REMARK   13  A    between atoms: _27  and  _29
REMARK   14  A    between atoms: _29  and  _30
REMARK   15  A    between atoms: _32  and  _34
REMARK   16  A    between atoms: _34  and  _35
REMARK   17  A    between atoms: _38  and  _40
REMARK   18  A    between atoms: _40  and  _41
REMARK   19  A    between atoms: _44  and  _46
REMARK   20  A    between atoms: _46  and  _47
REMARK   21  A    between atoms: _46  and  _49
REMARK   22  A    between atoms: _49  and  _50
REMARK   23  A    between atoms: _55  and  _57
REMARK   24  A    between atoms: _57  and  _58
REMARK   25  A    between atoms: _57  and  _60
REMARK   26  A    between atoms: _60  and  _61
REMARK   27  A    between atoms: _62  and  _64
REMARK   28  A    between atoms: _64  and  _65
REMARK   29  A    between atoms: _64  and  _67
REMARK   30  A    between atoms: _67  and  _68
REMARK   31  A    between atoms: _71  and  _73
REMARK   32  A    between atoms: _73  and  _74
REMARK   33  A    between atoms: _73  and  _76
REMARK   34  A    between atoms: _76  and  _77
REMARK   35  A    between atoms: _87  and  _89
REMARK   36  A    between atoms: _89  and  _90
REMARK   37  A    between atoms: _89  and  _92
REMARK   38  A    between atoms: _92  and  _93
REMARK   39  A    between atoms: _98  and  _100
REMARK   40  A    between atoms: _100  and  _101
REMARK   41  A    between atoms: _100  and  _103
REMARK   42  A    between atoms: _103  and  _104
REMARK   43  A    between atoms: _107  and  _109
REMARK   44  A    between atoms: _109  and  _110
REMARK   45  A    between atoms: _109  and  _112
REMARK   46  A    between atoms: _112  and  _113
REMARK   47  A    between atoms: _116  and  _118
REMARK   48  A    between atoms: _118  and  _119
REMARK   49  A    between atoms: _118  and  _121
REMARK   50  A    between atoms: _121  and  _122
REMARK   51  A    between atoms: _125  and  _127
REMARK   52  A    between atoms: _127  and  _128
REMARK   53  A    between atoms: _127  and  _130
REMARK   54  A    between atoms: _133  and  _135
REMARK   55  A    between atoms: _135  and  _136
REMARK   56  A    between atoms: _139  and  _141
REMARK   57  A    between atoms: _141  and  _142
REMARK   58  A    between atoms: _145  and  _147
REMARK   59  A    between atoms: _147  and  _148
REMARK   60  A    between atoms: _150  and  _152
REMARK   61  A    between atoms: _152  and  _153
REMARK   62  A    between atoms: _152  and  _155
REMARK   63  A    between atoms: _155  and  _156
REMARK   64  A    between atoms: _159  and  _161
REMARK   65  A    between atoms: _161  and  _162
REMARK   66  A    between atoms: _161  and  _164
REMARK   67  A    between atoms: _164  and  _165
REMARK   68  A    between atoms: _168  and  _170
REMARK   69  A    between atoms: _170  and  _171
REMARK   70  A    between atoms: _173  and  _175
REMARK   71  A    between atoms: _175  and  _176
REMARK   72  A    between atoms: _175  and  _178
REMARK   73  A    between atoms: _178  and  _179
REMARK   74  A    between atoms: _182  and  _184
REMARK   75  A    between atoms: _184  and  _185
REMARK   76  A    between atoms: _184  and  _187
REMARK   77  A    between atoms: _187  and  _188
REMARK   78  A    between atoms: _188  and  _189
REMARK   79  A    between atoms: _189  and  _190
REMARK   80  A    between atoms: _199  and  _201
REMARK   81  A    between atoms: _201  and  _202
REMARK   82  A    between atoms: _201  and  _204
REMARK   83  A    between atoms: _204  and  _205
REMARK   84  A    between atoms: _208  and  _210
REMARK   85  A    between atoms: _210  and  _211
REMARK   86  A    between atoms: _210  and  _213
REMARK   87  A    between atoms: _213  and  _214
REMARK   88  A    between atoms: _219  and  _221
REMARK   89  A    between atoms: _221  and  _222
REMARK   90  A    between atoms: _224  and  _226
REMARK   91  A    between atoms: _226  and  _227
REMARK   92  A    between atoms: _226  and  _229
REMARK   93  A    between atoms: _229  and  _230
REMARK   94  A    between atoms: _240  and  _242
REMARK   95  A    between atoms: _242  and  _243
REMARK   96  A    between atoms: _242  and  _245
REMARK   97  A    between atoms: _245  and  _246
REMARK   98  A    between atoms: _248  and  _250
REMARK   99  A    between atoms: _250  and  _251
REMARK  100  A    between atoms: _250  and  _253
REMARK  101  A    between atoms: _253  and  _254
REMARK  102  A    between atoms: _257  and  _259
REMARK  103  A    between atoms: _259  and  _260
REMARK  104  A    between atoms: _259  and  _262
REMARK  105  A    between atoms: _265  and  _267
REMARK  106  A    between atoms: _267  and  _268
REMARK  107  A    between atoms: _267  and  _270
REMARK  108  A    between atoms: _270  and  _271
REMARK  109  A    between atoms: _271  and  _272
REMARK  110  A    between atoms: _272  and  _273
REMARK  111  A    between atoms: _273  and  _274
REMARK  112  A    between atoms: _278  and  _280
REMARK  113  A    between atoms: _280  and  _281
REMARK  114  A    between atoms: _280  and  _283
REMARK  115  A    between atoms: _283  and  _284
REMARK  116  A    between atoms: _284  and  _285
REMARK  117  A    between atoms: _287  and  _289
REMARK  118  A    between atoms: _289  and  _290
REMARK  119  A    between atoms: _289  and  _292
REMARK  120  A    between atoms: _292  and  _293
REMARK  121  A    between atoms: _295  and  _297
REMARK  122  A    between atoms: _297  and  _298
REMARK  123  A    between atoms: _300  and  _302
REMARK  124  A    between atoms: _302  and  _303
REMARK  125  A    between atoms: _302  and  _305
REMARK  126  A    between atoms: _305  and  _306
REMARK  127  A    between atoms: _306  and  _441
REMARK  128  A    between atoms: _307  and  _309
REMARK  129  A    between atoms: _309  and  _310
REMARK  130  A    between atoms: _309  and  _312
REMARK  131  A    between atoms: _312  and  _313
REMARK  132  A    between atoms: _313  and  _314
REMARK  133  A    between atoms: _319  and  _321
REMARK  134  A    between atoms: _321  and  _322
REMARK  135  A    between atoms: _324  and  _326
REMARK  136  A    between atoms: _326  and  _327
REMARK  137  A    between atoms: _326  and  _329
REMARK  138  A    between atoms: _329  and  _330
REMARK  139  A    between atoms: _333  and  _335
REMARK  140  A    between atoms: _335  and  _336
REMARK  141  A    between atoms: _335  and  _338
REMARK  142  A    between atoms: _338  and  _339
REMARK  143  A    between atoms: _341  and  _343
REMARK  144  A    between atoms: _343  and  _344
REMARK  145  A    between atoms: _346  and  _348
REMARK  146  A    between atoms: _348  and  _349
REMARK  147  A    between atoms: _351  and  _353
REMARK  148  A    between atoms: _353  and  _354
REMARK  149  A    between atoms: _353  and  _356
REMARK  150  A    between atoms: _359  and  _361
REMARK  151  A    between atoms: _361  and  _362
REMARK  152  A    between atoms: _361  and  _364
REMARK  153  A    between atoms: _364  and  _365
REMARK  154  A    between atoms: _368  and  _370
REMARK  155  A    between atoms: _370  and  _371
REMARK  156  A    between atoms: _370  and  _373
REMARK  157  A    between atoms: _373  and  _374
REMARK  158  A    between atoms: _376  and  _378
REMARK  159  A    between atoms: _378  and  _379
REMARK  160  A    between atoms: _378  and  _381
REMARK  161  A    between atoms: _381  and  _382
REMARK  162  A    between atoms: _388  and  _390
REMARK  163  A    between atoms: _390  and  _391
REMARK  164  A    between atoms: _390  and  _393
REMARK  165  A    between atoms: _396  and  _398
REMARK  166  A    between atoms: _398  and  _399
REMARK  167  A    between atoms: _398  and  _401
REMARK  168  A    between atoms: _401  and  _402
REMARK  169  A    between atoms: _404  and  _406
REMARK  170  A    between atoms: _406  and  _407
REMARK  171  A    between atoms: _406  and  _409
REMARK  172  A    between atoms: _409  and  _410
REMARK  173  A    between atoms: _410  and  _411
REMARK  174  A    between atoms: _411  and  _412
REMARK  175  A    between atoms: _421  and  _423
REMARK  176  A    between atoms: _423  and  _424
REMARK  177  A    between atoms: _423  and  _426
REMARK  178  A    between atoms: _426  and  _427
REMARK  179  A    between atoms: _430  and  _432
REMARK  180  A    between atoms: _432  and  _433
REMARK  181  A    between atoms: _435  and  _437
REMARK  182  A    between atoms: _437  and  _438
REMARK  183  A    between atoms: _437  and  _440
REMARK  184  A    between atoms: _440  and  _441
REMARK  185  A    between atoms: _442  and  _444
REMARK  186  A    between atoms: _444  and  _445
REMARK  187  A    between atoms: _444  and  _447
REMARK  188  A    between atoms: _447  and  _448
REMARK  189  A    between atoms: _453  and  _455
REMARK  190  A    between atoms: _455  and  _456
REMARK  191  A    between atoms: _455  and  _458
REMARK  192  A    between atoms: _461  and  _463
REMARK  193  A    between atoms: _463  and  _464
REMARK  194  A    between atoms: _463  and  _466
REMARK  195  A    between atoms: _466  and  _467
REMARK  196  A    between atoms: _470  and  _472
REMARK  197  A    between atoms: _472  and  _473
REMARK  198  A    between atoms: _472  and  _475
REMARK  199  A    between atoms: _478  and  _480
REMARK  200  A    between atoms: _480  and  _481
REMARK  201  A    between atoms: _480  and  _483
REMARK  202  A    between atoms: _483  and  _484
REMARK  203  A    between atoms: _490  and  _492
REMARK  204  A    between atoms: _492  and  _493
REMARK  205  A    between atoms: _492  and  _495
REMARK  206  A    between atoms: _495  and  _496
REMARK                            x       y       z     vdW  Elec       q    Type
REMARK                         _______ _______ _______ _____ _____    ______ ____
ROOT
ATOM      1  O   HOH     1      28.275  17.000  45.695  0.00  0.00    +0.000 OA
ENDROOT
TORSDOF 0
REMARK  Name = ../refined-set-2016/1bma/1bma_pocket.pdb
REMARK  206 active torsions:
REMARK  status: ('A' for Active; 'I' for Inactive)
REMARK    1  A    between atoms: _1  and  _5
REMARK    2  A    between atoms: _5  and  _6
REMARK    3  A    between atoms: _5  and  _8
REMARK    4  A    between atoms: _11  and  _13
REMARK    5  A    between atoms: _13  and  _14
REMARK    6  A    between atoms: _13  and  _16
REMARK    7  A    between atoms: _16  and  _17
REMARK    8  A    between atoms: _20  and  _22
REMARK    9  A    between atoms: _22  and  _23
REMARK   10  A    between atoms: _22  and  _25
REMARK   11  A    between atoms: _25  and  _26
REMARK   12  A    between atoms: _26  and  _61
REMARK   13  A    between atoms: _27  and  _29
REMARK   14  A    between atoms: _29  and  _30
REMARK   15  A    between atoms: _32  and  _34
REMARK   16  A    between atoms: _34  and  _35
REMARK   17  A    between atoms: _38  and  _40
REMARK   18  A    between atoms: _40  and  _41
REMARK   19  A    between atoms: _44  and  _46
REMARK   20  A    between atoms: _46  and  _47
REMARK   21  A    between atoms: _46  and  _49
REMARK   22  A    between atoms: _49  and  _50
REMARK   23  A    between atoms: _55  and  _57
REMARK   24  A    between atoms: _57  and  _58
REMARK   25  A    between atoms: _57  and  _60
REMARK   26  A    between atoms: _60  and  _61
REMARK   27  A    between atoms: _62  and  _64
REMARK   28  A    between atoms: _64  and  _65
REMARK   29  A    between atoms: _64  and  _67
REMARK   30  A    between atoms: _67  and  _68
REMARK   31  A    between atoms: _71  and  _73
REMARK   32  A    between atoms: _73  and  _74
REMARK   33  A    between atoms: _73  and  _76
REMARK   34  A    between atoms: _76  and  _77
REMARK   35  A    between atoms: _87  and  _89
REMARK   36  A    between atoms: _89  and  _90
REMARK   37  A    between atoms: _89  and  _92
REMARK   38  A    between atoms: _92  and  _93
REMARK   39  A    between atoms: _98  and  _100
REMARK   40  A    between atoms: _100  and  _101
REMARK   41  A    between atoms: _100  and  _103
REMARK   42  A    between atoms: _103  and  _104
REMARK   43  A    between atoms: _107  and  _109
REMARK   44  A    between atoms: _109  and  _110
REMARK   45  A    between atoms: _109  and  _112
REMARK   46  A    between atoms: _112  and  _113
REMARK   47  A    between atoms: _116  and  _118
REMARK   48  A    between atoms: _118  and  _119
REMARK   49  A    between atoms: _118  and  _121
REMARK   50  A    between atoms: _121  and  _122
REMARK   51  A    between atoms: _125  and  _127
REMARK   52  A    between atoms: _127  and  _128
REMARK   53  A    between atoms: _127  and  _130
REMARK   54  A    between atoms: _133  and  _135
REMARK   55  A    between atoms: _135  and  _136
REMARK   56  A    between atoms: _139  and  _141
REMARK   57  A    between atoms: _141  and  _142
REMARK   58  A    between atoms: _145  and  _147
REMARK   59  A    between atoms: _147  and  _148
REMARK   60  A    between atoms: _150  and  _152
REMARK   61  A    between atoms: _152  and  _153
REMARK   62  A    between atoms: _152  and  _155
REMARK   63  A    between atoms: _155  and  _156
REMARK   64  A    between atoms: _159  and  _161
REMARK   65  A    between atoms: _161  and  _162
REMARK   66  A    between atoms: _161  and  _164
REMARK   67  A    between atoms: _164  and  _165
REMARK   68  A    between atoms: _168  and  _170
REMARK   69  A    between atoms: _170  and  _171
REMARK   70  A    between atoms: _173  and  _175
REMARK   71  A    between atoms: _175  and  _176
REMARK   72  A    between atoms: _175  and  _178
REMARK   73  A    between atoms: _178  and  _179
REMARK   74  A    between atoms: _182  and  _184
REMARK   75  A    between atoms: _184  and  _185
REMARK   76  A    between atoms: _184  and  _187
REMARK   77  A    between atoms: _187  and  _188
REMARK   78  A    between atoms: _188  and  _189
REMARK   79  A    between atoms: _189  and  _190
REMARK   80  A    between atoms: _199  and  _201
REMARK   81  A    between atoms: _201  and  _202
REMARK   82  A    between atoms: _201  and  _204
REMARK   83  A    between atoms: _204  and  _205
REMARK   84  A    between atoms: _208  and  _210
REMARK   85  A    between atoms: _210  and  _211
REMARK   86  A    between atoms: _210  and  _213
REMARK   87  A    between atoms: _213  and  _214
REMARK   88  A    between atoms: _219  and  _221
REMARK   89  A    between atoms: _221  and  _222
REMARK   90  A    between atoms: _224  and  _226
REMARK   91  A    between atoms: _226  and  _227
REMARK   92  A    between atoms: _226  and  _229
REMARK   93  A    between atoms: _229  and  _230
REMARK   94  A    between atoms: _240  and  _242
REMARK   95  A    between atoms: _242  and  _243
REMARK   96  A    between atoms: _242  and  _245
REMARK   97  A    between atoms: _245  and  _246
REMARK   98  A    between atoms: _248  and  _250
REMARK   99  A    between atoms: _250  and  _251
REMARK  100  A    between atoms: _250  and  _253
REMARK  101  A    between atoms: _253  and  _254
REMARK  102  A    between atoms: _257  and  _259
REMARK  103  A    between atoms: _259  and  _260
REMARK  104  A    between atoms: _259  and  _262
REMARK  105  A    between atoms: _265  and  _267
REMARK  106  A    between atoms: _267  and  _268
REMARK  107  A    between atoms: _267  and  _270
REMARK  108  A    between atoms: _270  and  _271
REMARK  109  A    between atoms: _271  and  _272
REMARK  110  A    between atoms: _272  and  _273
REMARK  111  A    between atoms: _273  and  _274
REMARK  112  A    between atoms: _278  and  _280
REMARK  113  A    between atoms: _280  and  _281
REMARK  114  A    between atoms: _280  and  _283
REMARK  115  A    between atoms: _283  and  _284
REMARK  116  A    between atoms: _284  and  _285
REMARK  117  A    between atoms: _287  and  _289
REMARK  118  A    between atoms: _289  and  _290
REMARK  119  A    between atoms: _289  and  _292
REMARK  120  A    between atoms: _292  and  _293
REMARK  121  A    between atoms: _295  and  _297
REMARK  122  A    between atoms: _297  and  _298
REMARK  123  A    between atoms: _300  and  _302
REMARK  124  A    between atoms: _302  and  _303
REMARK  125  A    between atoms: _302  and  _305
REMARK  126  A    between atoms: _305  and  _306
REMARK  127  A    between atoms: _306  and  _441
REMARK  128  A    between atoms: _307  and  _309
REMARK  129  A    between atoms: _309  and  _310
REMARK  130  A    between atoms: _309  and  _312
REMARK  131  A    between atoms: _312  and  _313
REMARK  132  A    between atoms: _313  and  _314
REMARK  133  A    between atoms: _319  and  _321
REMARK  134  A    between atoms: _321  and  _322
REMARK  135  A    between atoms: _324  and  _326
REMARK  136  A    between atoms: _326  and  _327
REMARK  137  A    between atoms: _326  and  _329
REMARK  138  A    between atoms: _329  and  _330
REMARK  139  A    between atoms: _333  and  _335
REMARK  140  A    between atoms: _335  and  _336
REMARK  141  A    between atoms: _335  and  _338
REMARK  142  A    between atoms: _338  and  _339
REMARK  143  A    between atoms: _341  and  _343
REMARK  144  A    between atoms: _343  and  _344
REMARK  145  A    between atoms: _346  and  _348
REMARK  146  A    between atoms: _348  and  _349
REMARK  147  A    between atoms: _351  and  _353
REMARK  148  A    between atoms: _353  and  _354
REMARK  149  A    between atoms: _353  and  _356
REMARK  150  A    between atoms: _359  and  _361
REMARK  151  A    between atoms: _361  and  _362
REMARK  152  A    between atoms: _361  and  _364
REMARK  153  A    between atoms: _364  and  _365
REMARK  154  A    between atoms: _368  and  _370
REMARK  155  A    between atoms: _370  and  _371
REMARK  156  A    between atoms: _370  and  _373
REMARK  157  A    between atoms: _373  and  _374
REMARK  158  A    between atoms: _376  and  _378
REMARK  159  A    between atoms: _378  and  _379
REMARK  160  A    between atoms: _378  and  _381
REMARK  161  A    between atoms: _381  and  _382
REMARK  162  A    between atoms: _388  and  _390
REMARK  163  A    between atoms: _390  and  _391
REMARK  164  A    between atoms: _390  and  _393
REMARK  165  A    between atoms: _396  and  _398
REMARK  166  A    between atoms: _398  and  _399
REMARK  167  A    between atoms: _398  and  _401
REMARK  168  A    between atoms: _401  and  _402
REMARK  169  A    between atoms: _404  and  _406
REMARK  170  A    between atoms: _406  and  _407
REMARK  171  A    between atoms: _406  and  _409
REMARK  172  A    between atoms: _409  and  _410
REMARK  173  A    between atoms: _410  and  _411
REMARK  174  A    between atoms: _411  and  _412
REMARK  175  A    between atoms: _421  and  _423
REMARK  176  A    between atoms: _423  and  _424
REMARK  177  A    between atoms: _423  and  _426
REMARK  178  A    between atoms: _426  and  _427
REMARK  179  A    between atoms: _430  and  _432
REMARK  180  A    between atoms: _432  and  _433
REMARK  181  A    between atoms: _435  and  _437
REMARK  182  A    between atoms: _437  and  _438
REMARK  183  A    between atoms: _437  and  _440
REMARK  184  A    between atoms: _440  and  _441
REMARK  185  A    between atoms: _442  and  _444
REMARK  186  A    between atoms: _444  and  _445
REMARK  187  A    between atoms: _444  and  _447
REMARK  188  A    between atoms: _447  and  _448
REMARK  189  A    between atoms: _453  and  _455
REMARK  190  A    between atoms: _455  and  _456
REMARK  191  A    between atoms: _455  and  _458
REMARK  192  A    between atoms: _461  and  _463
REMARK  193  A    between atoms: _463  and  _464
REMARK  194  A    between atoms: _463  and  _466
REMARK  195  A    between atoms: _466  and  _467
REMARK  196  A    between atoms: _470  and  _472
REMARK  197  A    between atoms: _472  and  _473
REMARK  198  A    between atoms: _472  and  _475
REMARK  199  A    between atoms: _478  and  _480
REMARK  200  A    between atoms: _480  and  _481
REMARK  201  A    between atoms: _480  and  _483
REMARK  202  A    between atoms: _483  and  _484
REMARK  203  A    between atoms: _490  and  _492
REMARK  204  A    between atoms: _492  and  _493
REMARK  205  A    between atoms: _492  and  _495
REMARK  206  A    between atoms: _495  and  _496
REMARK                            x       y       z     vdW  Elec       q    Type
REMARK                         _______ _______ _______ _____ _____    ______ ____
ROOT
ATOM      1  O   HOH     1      44.375  23.297  35.373  0.00  0.00    +0.000 OA
ENDROOT
TORSDOF 0
REMARK  Name = ../refined-set-2016/1bma/1bma_pocket.pdb
REMARK  206 active torsions:
REMARK  status: ('A' for Active; 'I' for Inactive)
REMARK    1  A    between atoms: _1  and  _5
REMARK    2  A    between atoms: _5  and  _6
REMARK    3  A    between atoms: _5  and  _8
REMARK    4  A    between atoms: _11  and  _13
REMARK    5  A    between atoms: _13  and  _14
REMARK    6  A    between atoms: _13  and  _16
REMARK    7  A    between atoms: _16  and  _17
REMARK    8  A    between atoms: _20  and  _22
REMARK    9  A    between atoms: _22  and  _23
REMARK   10  A    between atoms: _22  and  _25
REMARK   11  A    between atoms: _25  and  _26
REMARK   12  A    between atoms: _26  and  _61
REMARK   13  A    between atoms: _27  and  _29
REMARK   14  A    between atoms: _29  and  _30
REMARK   15  A    between atoms: _32  and  _34
REMARK   16  A    between atoms: _34  and  _35
REMARK   17  A    between atoms: _38  and  _40
REMARK   18  A    between atoms: _40  and  _41
REMARK   19  A    between atoms: _44  and  _46
REMARK   20  A    between atoms: _46  and  _47
REMARK   21  A    between atoms: _46  and  _49
REMARK   22  A    between atoms: _49  and  _50
REMARK   23  A    between atoms: _55  and  _57
REMARK   24  A    between atoms: _57  and  _58
REMARK   25  A    between atoms: _57  and  _60
REMARK   26  A    between atoms: _60  and  _61
REMARK   27  A    between atoms: _62  and  _64
REMARK   28  A    between atoms: _64  and  _65
REMARK   29  A    between atoms: _64  and  _67
REMARK   30  A    between atoms: _67  and  _68
REMARK   31  A    between atoms: _71  and  _73
REMARK   32  A    between atoms: _73  and  _74
REMARK   33  A    between atoms: _73  and  _76
REMARK   34  A    between atoms: _76  and  _77
REMARK   35  A    between atoms: _87  and  _89
REMARK   36  A    between atoms: _89  and  _90
REMARK   37  A    between atoms: _89  and  _92
REMARK   38  A    between atoms: _92  and  _93
REMARK   39  A    between atoms: _98  and  _100
REMARK   40  A    between atoms: _100  and  _101
REMARK   41  A    between atoms: _100  and  _103
REMARK   42  A    between atoms: _103  and  _104
REMARK   43  A    between atoms: _107  and  _109
REMARK   44  A    between atoms: _109  and  _110
REMARK   45  A    between atoms: _109  and  _112
REMARK   46  A    between atoms: _112  and  _113
REMARK   47  A    between atoms: _116  and  _118
REMARK   48  A    between atoms: _118  and  _119
REMARK   49  A    between atoms: _118  and  _121
REMARK   50  A    between atoms: _121  and  _122
REMARK   51  A    between atoms: _125  and  _127
REMARK   52  A    between atoms: _127  and  _128
REMARK   53  A    between atoms: _127  and  _130
REMARK   54  A    between atoms: _133  and  _135
REMARK   55  A    between atoms: _135  and  _136
REMARK   56  A    between atoms: _139  and  _141
REMARK   57  A    between atoms: _141  and  _142
REMARK   58  A    between atoms: _145  and  _147
REMARK   59  A    between atoms: _147  and  _148
REMARK   60  A    between atoms: _150  and  _152
REMARK   61  A    between atoms: _152  and  _153
REMARK   62  A    between atoms: _152  and  _155
REMARK   63  A    between atoms: _155  and  _156
REMARK   64  A    between atoms: _159  and  _161
REMARK   65  A    between atoms: _161  and  _162
REMARK   66  A    between atoms: _161  and  _164
REMARK   67  A    between atoms: _164  and  _165
REMARK   68  A    between atoms: _168  and  _170
REMARK   69  A    between atoms: _170  and  _171
REMARK   70  A    between atoms: _173  and  _175
REMARK   71  A    between atoms: _175  and  _176
REMARK   72  A    between atoms: _175  and  _178
REMARK   73  A    between atoms: _178  and  _179
REMARK   74  A    between atoms: _182  and  _184
REMARK   75  A    between atoms: _184  and  _185
REMARK   76  A    between atoms: _184  and  _187
REMARK   77  A    between atoms: _187  and  _188
REMARK   78  A    between atoms: _188  and  _189
REMARK   79  A    between atoms: _189  and  _190
REMARK   80  A    between atoms: _199  and  _201
REMARK   81  A    between atoms: _201  and  _202
REMARK   82  A    between atoms: _201  and  _204
REMARK   83  A    between atoms: _204  and  _205
REMARK   84  A    between atoms: _208  and  _210
REMARK   85  A    between atoms: _210  and  _211
REMARK   86  A    between atoms: _210  and  _213
REMARK   87  A    between atoms: _213  and  _214
REMARK   88  A    between atoms: _219  and  _221
REMARK   89  A    between atoms: _221  and  _222
REMARK   90  A    between atoms: _224  and  _226
REMARK   91  A    between atoms: _226  and  _227
REMARK   92  A    between atoms: _226  and  _229
REMARK   93  A    between atoms: _229  and  _230
REMARK   94  A    between atoms: _240  and  _242
REMARK   95  A    between atoms: _242  and  _243
REMARK   96  A    between atoms: _242  and  _245
REMARK   97  A    between atoms: _245  and  _246
REMARK   98  A    between atoms: _248  and  _250
REMARK   99  A    between atoms: _250  and  _251
REMARK  100  A    between atoms: _250  and  _253
REMARK  101  A    between atoms: _253  and  _254
REMARK  102  A    between atoms: _257  and  _259
REMARK  103  A    between atoms: _259  and  _260
REMARK  104  A    between atoms: _259  and  _262
REMARK  105  A    between atoms: _265  and  _267
REMARK  106  A    between atoms: _267  and  _268
REMARK  107  A    between atoms: _267  and  _270
REMARK  108  A    between atoms: _270  and  _271
REMARK  109  A    between atoms: _271  and  _272
REMARK  110  A    between atoms: _272  and  _273
REMARK  111  A    between atoms: _273  and  _274
REMARK  112  A    between atoms: _278  and  _280
REMARK  113  A    between atoms: _280  and  _281
REMARK  114  A    between atoms: _280  and  _283
REMARK  115  A    between atoms: _283  and  _284
REMARK  116  A    between atoms: _284  and  _285
REMARK  117  A    between atoms: _287  and  _289
REMARK  118  A    between atoms: _289  and  _290
REMARK  119  A    between atoms: _289  and  _292
REMARK  120  A    between atoms: _292  and  _293
REMARK  121  A    between atoms: _295  and  _297
REMARK  122  A    between atoms: _297  and  _298
REMARK  123  A    between atoms: _300  and  _302
REMARK  124  A    between atoms: _302  and  _303
REMARK  125  A    between atoms: _302  and  _305
REMARK  126  A    between atoms: _305  and  _306
REMARK  127  A    between atoms: _306  and  _441
REMARK  128  A    between atoms: _307  and  _309
REMARK  129  A    between atoms: _309  and  _310
REMARK  130  A    between atoms: _309  and  _312
REMARK  131  A    between atoms: _312  and  _313
REMARK  132  A    between atoms: _313  and  _314
REMARK  133  A    between atoms: _319  and  _321
REMARK  134  A    between atoms: _321  and  _322
REMARK  135  A    between atoms: _324  and  _326
REMARK  136  A    between atoms: _326  and  _327
REMARK  137  A    between atoms: _326  and  _329
REMARK  138  A    between atoms: _329  and  _330
REMARK  139  A    between atoms: _333  and  _335
REMARK  140  A    between atoms: _335  and  _336
REMARK  141  A    between atoms: _335  and  _338
REMARK  142  A    between atoms: _338  and  _339
REMARK  143  A    between atoms: _341  and  _343
REMARK  144  A    between atoms: _343  and  _344
REMARK  145  A    between atoms: _346  and  _348
REMARK  146  A    between atoms: _348  and  _349
REMARK  147  A    between atoms: _351  and  _353
REMARK  148  A    between atoms: _353  and  _354
REMARK  149  A    between atoms: _353  and  _356
REMARK  150  A    between atoms: _359  and  _361
REMARK  151  A    between atoms: _361  and  _362
REMARK  152  A    between atoms: _361  and  _364
REMARK  153  A    between atoms: _364  and  _365
REMARK  154  A    between atoms: _368  and  _370
REMARK  155  A    between atoms: _370  and  _371
REMARK  156  A    between atoms: _370  and  _373
REMARK  157  A    between atoms: _373  and  _374
REMARK  158  A    between atoms: _376  and  _378
REMARK  159  A    between atoms: _378  and  _379
REMARK  160  A    between atoms: _378  and  _381
REMARK  161  A    between atoms: _381  and  _382
REMARK  162  A    between atoms: _388  and  _390
REMARK  163  A    between atoms: _390  and  _391
REMARK  164  A    between atoms: _390  and  _393
REMARK  165  A    between atoms: _396  and  _398
REMARK  166  A    between atoms: _398  and  _399
REMARK  167  A    between atoms: _398  and  _401
REMARK  168  A    between atoms: _401  and  _402
REMARK  169  A    between atoms: _404  and  _406
REMARK  170  A    between atoms: _406  and  _407
REMARK  171  A    between atoms: _406  and  _409
REMARK  172  A    between atoms: _409  and  _410
REMARK  173  A    between atoms: _410  and  _411
REMARK  174  A    between atoms: _411  and  _412
REMARK  175  A    between atoms: _421  and  _423
REMARK  176  A    between atoms: _423  and  _424
REMARK  177  A    between atoms: _423  and  _426
REMARK  178  A    between atoms: _426  and  _427
REMARK  179  A    between atoms: _430  and  _432
REMARK  180  A    between atoms: _432  and  _433
REMARK  181  A    between atoms: _435  and  _437
REMARK  182  A    between atoms: _437  and  _438
REMARK  183  A    between atoms: _437  and  _440
REMARK  184  A    between atoms: _440  and  _441
REMARK  185  A    between atoms: _442  and  _444
REMARK  186  A    between atoms: _444  and  _445
REMARK  187  A    between atoms: _444  and  _447
REMARK  188  A    between atoms: _447  and  _448
REMARK  189  A    between atoms: _453  and  _455
REMARK  190  A    between atoms: _455  and  _456
REMARK  191  A    between atoms: _455  and  _458
REMARK  192  A    between atoms: _461  and  _463
REMARK  193  A    between atoms: _463  and  _464
REMARK  194  A    between atoms: _463  and  _466
REMARK  195  A    between atoms: _466  and  _467
REMARK  196  A    between atoms: _470  and  _472
REMARK  197  A    between atoms: _472  and  _473
REMARK  198  A    between atoms: _472  and  _475
REMARK  199  A    between atoms: _478  and  _480
REMARK  200  A    between atoms: _480  and  _481
REMARK  201  A    between atoms: _480  and  _483
REMARK  202  A    between atoms: _483  and  _484
REMARK  203  A    between atoms: _490  and  _492
REMARK  204  A    between atoms: _492  and  _493
REMARK  205  A    between atoms: _492  and  _495
REMARK  206  A    between atoms: _495  and  _496
REMARK                            x       y       z     vdW  Elec       q    Type
REMARK                         _______ _______ _______ _____ _____    ______ ____
ROOT
ATOM      1  O   HOH     1      30.494  28.541  32.709  0.00  0.00    +0.000 OA
ENDROOT
TORSDOF 0
REMARK  Name = ../refined-set-2016/1bma/1bma_pocket.pdb
REMARK  206 active torsions:
REMARK  status: ('A' for Active; 'I' for Inactive)
REMARK    1  A    between atoms: _1  and  _5
REMARK    2  A    between atoms: _5  and  _6
REMARK    3  A    between atoms: _5  and  _8
REMARK    4  A    between atoms: _11  and  _13
REMARK    5  A    between atoms: _13  and  _14
REMARK    6  A    between atoms: _13  and  _16
REMARK    7  A    between atoms: _16  and  _17
REMARK    8  A    between atoms: _20  and  _22
REMARK    9  A    between atoms: _22  and  _23
REMARK   10  A    between atoms: _22  and  _25
REMARK   11  A    between atoms: _25  and  _26
REMARK   12  A    between atoms: _26  and  _61
REMARK   13  A    between atoms: _27  and  _29
REMARK   14  A    between atoms: _29  and  _30
REMARK   15  A    between atoms: _32  and  _34
REMARK   16  A    between atoms: _34  and  _35
REMARK   17  A    between atoms: _38  and  _40
REMARK   18  A    between atoms: _40  and  _41
REMARK   19  A    between atoms: _44  and  _46
REMARK   20  A    between atoms: _46  and  _47
REMARK   21  A    between atoms: _46  and  _49
REMARK   22  A    between atoms: _49  and  _50
REMARK   23  A    between atoms: _55  and  _57
REMARK   24  A    between atoms: _57  and  _58
REMARK   25  A    between atoms: _57  and  _60
REMARK   26  A    between atoms: _60  and  _61
REMARK   27  A    between atoms: _62  and  _64
REMARK   28  A    between atoms: _64  and  _65
REMARK   29  A    between atoms: _64  and  _67
REMARK   30  A    between atoms: _67  and  _68
REMARK   31  A    between atoms: _71  and  _73
REMARK   32  A    between atoms: _73  and  _74
REMARK   33  A    between atoms: _73  and  _76
REMARK   34  A    between atoms: _76  and  _77
REMARK   35  A    between atoms: _87  and  _89
REMARK   36  A    between atoms: _89  and  _90
REMARK   37  A    between atoms: _89  and  _92
REMARK   38  A    between atoms: _92  and  _93
REMARK   39  A    between atoms: _98  and  _100
REMARK   40  A    between atoms: _100  and  _101
REMARK   41  A    between atoms: _100  and  _103
REMARK   42  A    between atoms: _103  and  _104
REMARK   43  A    between atoms: _107  and  _109
REMARK   44  A    between atoms: _109  and  _110
REMARK   45  A    between atoms: _109  and  _112
REMARK   46  A    between atoms: _112  and  _113
REMARK   47  A    between atoms: _116  and  _118
REMARK   48  A    between atoms: _118  and  _119
REMARK   49  A    between atoms: _118  and  _121
REMARK   50  A    between atoms: _121  and  _122
REMARK   51  A    between atoms: _125  and  _127
REMARK   52  A    between atoms: _127  and  _128
REMARK   53  A    between atoms: _127  and  _130
REMARK   54  A    between atoms: _133  and  _135
REMARK   55  A    between atoms: _135  and  _136
REMARK   56  A    between atoms: _139  and  _141
REMARK   57  A    between atoms: _141  and  _142
REMARK   58  A    between atoms: _145  and  _147
REMARK   59  A    between atoms: _147  and  _148
REMARK   60  A    between atoms: _150  and  _152
REMARK   61  A    between atoms: _152  and  _153
REMARK   62  A    between atoms: _152  and  _155
REMARK   63  A    between atoms: _155  and  _156
REMARK   64  A    between atoms: _159  and  _161
REMARK   65  A    between atoms: _161  and  _162
REMARK   66  A    between atoms: _161  and  _164
REMARK   67  A    between atoms: _164  and  _165
REMARK   68  A    between atoms: _168  and  _170
REMARK   69  A    between atoms: _170  and  _171
REMARK   70  A    between atoms: _173  and  _175
REMARK   71  A    between atoms: _175  and  _176
REMARK   72  A    between atoms: _175  and  _178
REMARK   73  A    between atoms: _178  and  _179
REMARK   74  A    between atoms: _182  and  _184
REMARK   75  A    between atoms: _184  and  _185
REMARK   76  A    between atoms: _184  and  _187
REMARK   77  A    between atoms: _187  and  _188
REMARK   78  A    between atoms: _188  and  _189
REMARK   79  A    between atoms: _189  and  _190
REMARK   80  A    between atoms: _199  and  _201
REMARK   81  A    between atoms: _201  and  _202
REMARK   82  A    between atoms: _201  and  _204
REMARK   83  A    between atoms: _204  and  _205
REMARK   84  A    between atoms: _208  and  _210
REMARK   85  A    between atoms: _210  and  _211
REMARK   86  A    between atoms: _210  and  _213
REMARK   87  A    between atoms: _213  and  _214
REMARK   88  A    between atoms: _219  and  _221
REMARK   89  A    between atoms: _221  and  _222
REMARK   90  A    between atoms: _224  and  _226
REMARK   91  A    between atoms: _226  and  _227
REMARK   92  A    between atoms: _226  and  _229
REMARK   93  A    between atoms: _229  and  _230
REMARK   94  A    between atoms: _240  and  _242
REMARK   95  A    between atoms: _242  and  _243
REMARK   96  A    between atoms: _242  and  _245
REMARK   97  A    between atoms: _245  and  _246
REMARK   98  A    between atoms: _248  and  _250
REMARK   99  A    between atoms: _250  and  _251
REMARK  100  A    between atoms: _250  and  _253
REMARK  101  A    between atoms: _253  and  _254
REMARK  102  A    between atoms: _257  and  _259
REMARK  103  A    between atoms: _259  and  _260
REMARK  104  A    between atoms: _259  and  _262
REMARK  105  A    between atoms: _265  and  _267
REMARK  106  A    between atoms: _267  and  _268
REMARK  107  A    between atoms: _267  and  _270
REMARK  108  A    between atoms: _270  and  _271
REMARK  109  A    between atoms: _271  and  _272
REMARK  110  A    between atoms: _272  and  _273
REMARK  111  A    between atoms: _273  and  _274
REMARK  112  A    between atoms: _278  and  _280
REMARK  113  A    between atoms: _280  and  _281
REMARK  114  A    between atoms: _280  and  _283
REMARK  115  A    between atoms: _283  and  _284
REMARK  116  A    between atoms: _284  and  _285
REMARK  117  A    between atoms: _287  and  _289
REMARK  118  A    between atoms: _289  and  _290
REMARK  119  A    between atoms: _289  and  _292
REMARK  120  A    between atoms: _292  and  _293
REMARK  121  A    between atoms: _295  and  _297
REMARK  122  A    between atoms: _297  and  _298
REMARK  123  A    between atoms: _300  and  _302
REMARK  124  A    between atoms: _302  and  _303
REMARK  125  A    between atoms: _302  and  _305
REMARK  126  A    between atoms: _305  and  _306
REMARK  127  A    between atoms: _306  and  _441
REMARK  128  A    between atoms: _307  and  _309
REMARK  129  A    between atoms: _309  and  _310
REMARK  130  A    between atoms: _309  and  _312
REMARK  131  A    between atoms: _312  and  _313
REMARK  132  A    between atoms: _313  and  _314
REMARK  133  A    between atoms: _319  and  _321
REMARK  134  A    between atoms: _321  and  _322
REMARK  135  A    between atoms: _324  and  _326
REMARK  136  A    between atoms: _326  and  _327
REMARK  137  A    between atoms: _326  and  _329
REMARK  138  A    between atoms: _329  and  _330
REMARK  139  A    between atoms: _333  and  _335
REMARK  140  A    between atoms: _335  and  _336
REMARK  141  A    between atoms: _335  and  _338
REMARK  142  A    between atoms: _338  and  _339
REMARK  143  A    between atoms: _341  and  _343
REMARK  144  A    between atoms: _343  and  _344
REMARK  145  A    between atoms: _346  and  _348
REMARK  146  A    between atoms: _348  and  _349
REMARK  147  A    between atoms: _351  and  _353
REMARK  148  A    between atoms: _353  and  _354
REMARK  149  A    between atoms: _353  and  _356
REMARK  150  A    between atoms: _359  and  _361
REMARK  151  A    between atoms: _361  and  _362
REMARK  152  A    between atoms: _361  and  _364
REMARK  153  A    between atoms: _364  and  _365
REMARK  154  A    between atoms: _368  and  _370
REMARK  155  A    between atoms: _370  and  _371
REMARK  156  A    between atoms: _370  and  _373
REMARK  157  A    between atoms: _373  and  _374
REMARK  158  A    between atoms: _376  and  _378
REMARK  159  A    between atoms: _378  and  _379
REMARK  160  A    between atoms: _378  and  _381
REMARK  161  A    between atoms: _381  and  _382
REMARK  162  A    between atoms: _388  and  _390
REMARK  163  A    between atoms: _390  and  _391
REMARK  164  A    between atoms: _390  and  _393
REMARK  165  A    between atoms: _396  and  _398
REMARK  166  A    between atoms: _398  and  _399
REMARK  167  A    between atoms: _398  and  _401
REMARK  168  A    between atoms: _401  and  _402
REMARK  169  A    between atoms: _404  and  _406
REMARK  170  A    between atoms: _406  and  _407
REMARK  171  A    between atoms: _406  and  _409
REMARK  172  A    between atoms: _409  and  _410
REMARK  173  A    between atoms: _410  and  _411
REMARK  174  A    between atoms: _411  and  _412
REMARK  175  A    between atoms: _421  and  _423
REMARK  176  A    between atoms: _423  and  _424
REMARK  177  A    between atoms: _423  and  _426
REMARK  178  A    between atoms: _426  and  _427
REMARK  179  A    between atoms: _430  and  _432
REMARK  180  A    between atoms: _432  and  _433
REMARK  181  A    between atoms: _435  and  _437
REMARK  182  A    between atoms: _437  and  _438
REMARK  183  A    between atoms: _437  and  _440
REMARK  184  A    between atoms: _440  and  _441
REMARK  185  A    between atoms: _442  and  _444
REMARK  186  A    between atoms: _444  and  _445
REMARK  187  A    between atoms: _444  and  _447
REMARK  188  A    between atoms: _447  and  _448
REMARK  189  A    between atoms: _453  and  _455
REMARK  190  A    between atoms: _455  and  _456
REMARK  191  A    between atoms: _455  and  _458
REMARK  192  A    between atoms: _461  and  _463
REMARK  193  A    between atoms: _463  and  _464
REMARK  194  A    between atoms: _463  and  _466
REMARK  195  A    between atoms: _466  and  _467
REMARK  196  A    between atoms: _470  and  _472
REMARK  197  A    between atoms: _472  and  _473
REMARK  198  A    between atoms: _472  and  _475
REMARK  199  A    between atoms: _478  and  _480
REMARK  200  A    between atoms: _480  and  _481
REMARK  201  A    between atoms: _480  and  _483
REMARK  202  A    between atoms: _483  and  _484
REMARK  203  A    between atoms: _490  and  _492
REMARK  204  A    between atoms: _492  and  _493
REMARK  205  A    between atoms: _492  and  _495
REMARK  206  A    between atoms: _495  and  _496
REMARK                            x       y       z     vdW  Elec       q    Type
REMARK                         _______ _______ _______ _____ _____    ______ ____
ROOT
ATOM      1  O   HOH     1      28.283  22.782  30.998  0.00  0.00    +0.000 OA
ENDROOT
TORSDOF 0
REMARK  Name = ../refined-set-2016/1bma/1bma_pocket.pdb
REMARK  206 active torsions:
REMARK  status: ('A' for Active; 'I' for Inactive)
REMARK    1  A    between atoms: _1  and  _5
REMARK    2  A    between atoms: _5  and  _6
REMARK    3  A    between atoms: _5  and  _8
REMARK    4  A    between atoms: _11  and  _13
REMARK    5  A    between atoms: _13  and  _14
REMARK    6  A    between atoms: _13  and  _16
REMARK    7  A    between atoms: _16  and  _17
REMARK    8  A    between atoms: _20  and  _22
REMARK    9  A    between atoms: _22  and  _23
REMARK   10  A    between atoms: _22  and  _25
REMARK   11  A    between atoms: _25  and  _26
REMARK   12  A    between atoms: _26  and  _61
REMARK   13  A    between atoms: _27  and  _29
REMARK   14  A    between atoms: _29  and  _30
REMARK   15  A    between atoms: _32  and  _34
REMARK   16  A    between atoms: _34  and  _35
REMARK   17  A    between atoms: _38  and  _40
REMARK   18  A    between atoms: _40  and  _41
REMARK   19  A    between atoms: _44  and  _46
REMARK   20  A    between atoms: _46  and  _47
REMARK   21  A    between atoms: _46  and  _49
REMARK   22  A    between atoms: _49  and  _50
REMARK   23  A    between atoms: _55  and  _57
REMARK   24  A    between atoms: _57  and  _58
REMARK   25  A    between atoms: _57  and  _60
REMARK   26  A    between atoms: _60  and  _61
REMARK   27  A    between atoms: _62  and  _64
REMARK   28  A    between atoms: _64  and  _65
REMARK   29  A    between atoms: _64  and  _67
REMARK   30  A    between atoms: _67  and  _68
REMARK   31  A    between atoms: _71  and  _73
REMARK   32  A    between atoms: _73  and  _74
REMARK   33  A    between atoms: _73  and  _76
REMARK   34  A    between atoms: _76  and  _77
REMARK   35  A    between atoms: _87  and  _89
REMARK   36  A    between atoms: _89  and  _90
REMARK   37  A    between atoms: _89  and  _92
REMARK   38  A    between atoms: _92  and  _93
REMARK   39  A    between atoms: _98  and  _100
REMARK   40  A    between atoms: _100  and  _101
REMARK   41  A    between atoms: _100  and  _103
REMARK   42  A    between atoms: _103  and  _104
REMARK   43  A    between atoms: _107  and  _109
REMARK   44  A    between atoms: _109  and  _110
REMARK   45  A    between atoms: _109  and  _112
REMARK   46  A    between atoms: _112  and  _113
REMARK   47  A    between atoms: _116  and  _118
REMARK   48  A    between atoms: _118  and  _119
REMARK   49  A    between atoms: _118  and  _121
REMARK   50  A    between atoms: _121  and  _122
REMARK   51  A    between atoms: _125  and  _127
REMARK   52  A    between atoms: _127  and  _128
REMARK   53  A    between atoms: _127  and  _130
REMARK   54  A    between atoms: _133  and  _135
REMARK   55  A    between atoms: _135  and  _136
REMARK   56  A    between atoms: _139  and  _141
REMARK   57  A    between atoms: _141  and  _142
REMARK   58  A    between atoms: _145  and  _147
REMARK   59  A    between atoms: _147  and  _148
REMARK   60  A    between atoms: _150  and  _152
REMARK   61  A    between atoms: _152  and  _153
REMARK   62  A    between atoms: _152  and  _155
REMARK   63  A    between atoms: _155  and  _156
REMARK   64  A    between atoms: _159  and  _161
REMARK   65  A    between atoms: _161  and  _162
REMARK   66  A    between atoms: _161  and  _164
REMARK   67  A    between atoms: _164  and  _165
REMARK   68  A    between atoms: _168  and  _170
REMARK   69  A    between atoms: _170  and  _171
REMARK   70  A    between atoms: _173  and  _175
REMARK   71  A    between atoms: _175  and  _176
REMARK   72  A    between atoms: _175  and  _178
REMARK   73  A    between atoms: _178  and  _179
REMARK   74  A    between atoms: _182  and  _184
REMARK   75  A    between atoms: _184  and  _185
REMARK   76  A    between atoms: _184  and  _187
REMARK   77  A    between atoms: _187  and  _188
REMARK   78  A    between atoms: _188  and  _189
REMARK   79  A    between atoms: _189  and  _190
REMARK   80  A    between atoms: _199  and  _201
REMARK   81  A    between atoms: _201  and  _202
REMARK   82  A    between atoms: _201  and  _204
REMARK   83  A    between atoms: _204  and  _205
REMARK   84  A    between atoms: _208  and  _210
REMARK   85  A    between atoms: _210  and  _211
REMARK   86  A    between atoms: _210  and  _213
REMARK   87  A    between atoms: _213  and  _214
REMARK   88  A    between atoms: _219  and  _221
REMARK   89  A    between atoms: _221  and  _222
REMARK   90  A    between atoms: _224  and  _226
REMARK   91  A    between atoms: _226  and  _227
REMARK   92  A    between atoms: _226  and  _229
REMARK   93  A    between atoms: _229  and  _230
REMARK   94  A    between atoms: _240  and  _242
REMARK   95  A    between atoms: _242  and  _243
REMARK   96  A    between atoms: _242  and  _245
REMARK   97  A    between atoms: _245  and  _246
REMARK   98  A    between atoms: _248  and  _250
REMARK   99  A    between atoms: _250  and  _251
REMARK  100  A    between atoms: _250  and  _253
REMARK  101  A    between atoms: _253  and  _254
REMARK  102  A    between atoms: _257  and  _259
REMARK  103  A    between atoms: _259  and  _260
REMARK  104  A    between atoms: _259  and  _262
REMARK  105  A    between atoms: _265  and  _267
REMARK  106  A    between atoms: _267  and  _268
REMARK  107  A    between atoms: _267  and  _270
REMARK  108  A    between atoms: _270  and  _271
REMARK  109  A    between atoms: _271  and  _272
REMARK  110  A    between atoms: _272  and  _273
REMARK  111  A    between atoms: _273  and  _274
REMARK  112  A    between atoms: _278  and  _280
REMARK  113  A    between atoms: _280  and  _281
REMARK  114  A    between atoms: _280  and  _283
REMARK  115  A    between atoms: _283  and  _284
REMARK  116  A    between atoms: _284  and  _285
REMARK  117  A    between atoms: _287  and  _289
REMARK  118  A    between atoms: _289  and  _290
REMARK  119  A    between atoms: _289  and  _292
REMARK  120  A    between atoms: _292  and  _293
REMARK  121  A    between atoms: _295  and  _297
REMARK  122  A    between atoms: _297  and  _298
REMARK  123  A    between atoms: _300  and  _302
REMARK  124  A    between atoms: _302  and  _303
REMARK  125  A    between atoms: _302  and  _305
REMARK  126  A    between atoms: _305  and  _306
REMARK  127  A    between atoms: _306  and  _441
REMARK  128  A    between atoms: _307  and  _309
REMARK  129  A    between atoms: _309  and  _310
REMARK  130  A    between atoms: _309  and  _312
REMARK  131  A    between atoms: _312  and  _313
REMARK  132  A    between atoms: _313  and  _314
REMARK  133  A    between atoms: _319  and  _321
REMARK  134  A    between atoms: _321  and  _322
REMARK  135  A    between atoms: _324  and  _326
REMARK  136  A    between atoms: _326  and  _327
REMARK  137  A    between atoms: _326  and  _329
REMARK  138  A    between atoms: _329  and  _330
REMARK  139  A    between atoms: _333  and  _335
REMARK  140  A    between atoms: _335  and  _336
REMARK  141  A    between atoms: _335  and  _338
REMARK  142  A    between atoms: _338  and  _339
REMARK  143  A    between atoms: _341  and  _343
REMARK  144  A    between atoms: _343  and  _344
REMARK  145  A    between atoms: _346  and  _348
REMARK  146  A    between atoms: _348  and  _349
REMARK  147  A    between atoms: _351  and  _353
REMARK  148  A    between atoms: _353  and  _354
REMARK  149  A    between atoms: _353  and  _356
REMARK  150  A    between atoms: _359  and  _361
REMARK  151  A    between atoms: _361  and  _362
REMARK  152  A    between atoms: _361  and  _364
REMARK  153  A    between atoms: _364  and  _365
REMARK  154  A    between atoms: _368  and  _370
REMARK  155  A    between atoms: _370  and  _371
REMARK  156  A    between atoms: _370  and  _373
REMARK  157  A    between atoms: _373  and  _374
REMARK  158  A    between atoms: _376  and  _378
REMARK  159  A    between atoms: _378  and  _379
REMARK  160  A    between atoms: _378  and  _381
REMARK  161  A    between atoms: _381  and  _382
REMARK  162  A    between atoms: _388  and  _390
REMARK  163  A    between atoms: _390  and  _391
REMARK  164  A    between atoms: _390  and  _393
REMARK  165  A    between atoms: _396  and  _398
REMARK  166  A    between atoms: _398  and  _399
REMARK  167  A    between atoms: _398  and  _401
REMARK  168  A    between atoms: _401  and  _402
REMARK  169  A    between atoms: _404  and  _406
REMARK  170  A    between atoms: _406  and  _407
REMARK  171  A    between atoms: _406  and  _409
REMARK  172  A    between atoms: _409  and  _410
REMARK  173  A    between atoms: _410  and  _411
REMARK  174  A    between atoms: _411  and  _412
REMARK  175  A    between atoms: _421  and  _423
REMARK  176  A    between atoms: _423  and  _424
REMARK  177  A    between atoms: _423  and  _426
REMARK  178  A    between atoms: _426  and  _427
REMARK  179  A    between atoms: _430  and  _432
REMARK  180  A    between atoms: _432  and  _433
REMARK  181  A    between atoms: _435  and  _437
REMARK  182  A    between atoms: _437  and  _438
REMARK  183  A    between atoms: _437  and  _440
REMARK  184  A    between atoms: _440  and  _441
REMARK  185  A    between atoms: _442  and  _444
REMARK  186  A    between atoms: _444  and  _445
REMARK  187  A    between atoms: _444  and  _447
REMARK  188  A    between atoms: _447  and  _448
REMARK  189  A    between atoms: _453  and  _455
REMARK  190  A    between atoms: _455  and  _456
REMARK  191  A    between atoms: _455  and  _458
REMARK  192  A    between atoms: _461  and  _463
REMARK  193  A    between atoms: _463  and  _464
REMARK  194  A    between atoms: _463  and  _466
REMARK  195  A    between atoms: _466  and  _467
REMARK  196  A    between atoms: _470  and  _472
REMARK  197  A    between atoms: _472  and  _473
REMARK  198  A    between atoms: _472  and  _475
REMARK  199  A    between atoms: _478  and  _480
REMARK  200  A    between atoms: _480  and  _481
REMARK  201  A    between atoms: _480  and  _483
REMARK  202  A    between atoms: _483  and  _484
REMARK  203  A    between atoms: _490  and  _492
REMARK  204  A    between atoms: _492  and  _493
REMARK  205  A    between atoms: _492  and  _495
REMARK  206  A    between atoms: _495  and  _496
REMARK                            x       y       z     vdW  Elec       q    Type
REMARK                         _______ _______ _______ _____ _____    ______ ____
ROOT
ATOM      1  O   HOH     1      42.962  20.877  34.581  0.00  0.00    +0.000 OA
ENDROOT
TORSDOF 0
