REMARK  Name = ../refined-set-2016/2evl/2evl_pocket.pdb
REMARK  247 active torsions:
REMARK  status: ('A' for Active; 'I' for Inactive)
REMARK    1  A    between atoms: _1  and  _3
REMARK    2  A    between atoms: _3  and  _4
REMARK    3  A    between atoms: _3  and  _6
REMARK    4  A    between atoms: _6  and  _7
REMARK    5  A    between atoms: _13  and  _15
REMARK    6  A    between atoms: _15  and  _16
REMARK    7  A    between atoms: _15  and  _18
REMARK    8  A    between atoms: _18  and  _19
REMARK    9  A    between atoms: _22  and  _24
REMARK   10  A    between atoms: _24  and  _25
REMARK   11  A    between atoms: _24  and  _27
REMARK   12  A    between atoms: _30  and  _32
REMARK   13  A    between atoms: _32  and  _33
REMARK   14  A    between atoms: _32  and  _35
REMARK   15  A    between atoms: _35  and  _36
REMARK   16  A    between atoms: _42  and  _44
REMARK   17  A    between atoms: _44  and  _45
REMARK   18  A    between atoms: _44  and  _47
REMARK   19  A    between atoms: _47  and  _48
REMARK   20  A    between atoms: _52  and  _53
REMARK   21  A    between atoms: _58  and  _60
REMARK   22  A    between atoms: _60  and  _61
REMARK   23  A    between atoms: _60  and  _63
REMARK   24  A    between atoms: _63  and  _64
REMARK   25  A    between atoms: _67  and  _69
REMARK   26  A    between atoms: _69  and  _70
REMARK   27  A    between atoms: _69  and  _72
REMARK   28  A    between atoms: _72  and  _73
REMARK   29  A    between atoms: _73  and  _74
REMARK   30  A    between atoms: _74  and  _75
REMARK   31  A    between atoms: _75  and  _76
REMARK   32  A    between atoms: _80  and  _82
REMARK   33  A    between atoms: _82  and  _83
REMARK   34  A    between atoms: _86  and  _88
REMARK   35  A    between atoms: _88  and  _89
REMARK   36  A    between atoms: _88  and  _91
REMARK   37  A    between atoms: _91  and  _92
REMARK   38  A    between atoms: _95  and  _97
REMARK   39  A    between atoms: _97  and  _98
REMARK   40  A    between atoms: _97  and  _100
REMARK   41  A    between atoms: _100  and  _101
REMARK   42  A    between atoms: _104  and  _106
REMARK   43  A    between atoms: _106  and  _107
REMARK   44  A    between atoms: _109  and  _111
REMARK   45  A    between atoms: _111  and  _112
REMARK   46  A    between atoms: _111  and  _114
REMARK   47  A    between atoms: _114  and  _115
REMARK   48  A    between atoms: _120  and  _122
REMARK   49  A    between atoms: _122  and  _123
REMARK   50  A    between atoms: _122  and  _125
REMARK   51  A    between atoms: _125  and  _126
REMARK   52  A    between atoms: _129  and  _131
REMARK   53  A    between atoms: _131  and  _132
REMARK   54  A    between atoms: _131  and  _134
REMARK   55  A    between atoms: _134  and  _135
REMARK   56  A    between atoms: _135  and  _136
REMARK   57  A    between atoms: _136  and  _137
REMARK   58  A    between atoms: _137  and  _138
REMARK   59  A    between atoms: _142  and  _144
REMARK   60  A    between atoms: _144  and  _145
REMARK   61  A    between atoms: _144  and  _147
REMARK   62  A    between atoms: _147  and  _148
REMARK   63  A    between atoms: _151  and  _153
REMARK   64  A    between atoms: _153  and  _154
REMARK   65  A    between atoms: _153  and  _156
REMARK   66  A    between atoms: _156  and  _157
REMARK   67  A    between atoms: _157  and  _158
REMARK   68  A    between atoms: _158  and  _159
REMARK   69  A    between atoms: _159  and  _160
REMARK   70  A    between atoms: _164  and  _166
REMARK   71  A    between atoms: _166  and  _167
REMARK   72  A    between atoms: _169  and  _171
REMARK   73  A    between atoms: _171  and  _172
REMARK   74  A    between atoms: _171  and  _174
REMARK   75  A    between atoms: _174  and  _175
REMARK   76  A    between atoms: _178  and  _180
REMARK   77  A    between atoms: _180  and  _181
REMARK   78  A    between atoms: _184  and  _186
REMARK   79  A    between atoms: _186  and  _187
REMARK   80  A    between atoms: _186  and  _189
REMARK   81  A    between atoms: _189  and  _190
REMARK   82  A    between atoms: _193  and  _195
REMARK   83  A    between atoms: _195  and  _196
REMARK   84  A    between atoms: _195  and  _198
REMARK   85  A    between atoms: _198  and  _199
REMARK   86  A    between atoms: _199  and  _200
REMARK   87  A    between atoms: _202  and  _204
REMARK   88  A    between atoms: _204  and  _205
REMARK   89  A    between atoms: _204  and  _207
REMARK   90  A    between atoms: _207  and  _208
REMARK   91  A    between atoms: _218  and  _220
REMARK   92  A    between atoms: _220  and  _221
REMARK   93  A    between atoms: _220  and  _223
REMARK   94  A    between atoms: _223  and  _224
REMARK   95  A    between atoms: _227  and  _229
REMARK   96  A    between atoms: _229  and  _230
REMARK   97  A    between atoms: _229  and  _232
REMARK   98  A    between atoms: _232  and  _233
REMARK   99  A    between atoms: _233  and  _234
REMARK  100  A    between atoms: _234  and  _235
REMARK  101  A    between atoms: _235  and  _236
REMARK  102  A    between atoms: _240  and  _242
REMARK  103  A    between atoms: _242  and  _243
REMARK  104  A    between atoms: _242  and  _245
REMARK  105  A    between atoms: _245  and  _246
REMARK  106  A    between atoms: _246  and  _247
REMARK  107  A    between atoms: _247  and  _248
REMARK  108  A    between atoms: _257  and  _259
REMARK  109  A    between atoms: _259  and  _260
REMARK  110  A    between atoms: _262  and  _264
REMARK  111  A    between atoms: _264  and  _265
REMARK  112  A    between atoms: _264  and  _267
REMARK  113  A    between atoms: _267  and  _268
REMARK  114  A    between atoms: _271  and  _273
REMARK  115  A    between atoms: _273  and  _274
REMARK  116  A    between atoms: _273  and  _276
REMARK  117  A    between atoms: _276  and  _277
REMARK  118  A    between atoms: _277  and  _278
REMARK  119  A    between atoms: _278  and  _279
REMARK  120  A    between atoms: _288  and  _290
REMARK  121  A    between atoms: _290  and  _291
REMARK  122  A    between atoms: _290  and  _293
REMARK  123  A    between atoms: _293  and  _294
REMARK  124  A    between atoms: _300  and  _302
REMARK  125  A    between atoms: _302  and  _303
REMARK  126  A    between atoms: _302  and  _305
REMARK  127  A    between atoms: _305  and  _306
REMARK  128  A    between atoms: _309  and  _311
REMARK  129  A    between atoms: _311  and  _312
REMARK  130  A    between atoms: _311  and  _314
REMARK  131  A    between atoms: _314  and  _315
REMARK  132  A    between atoms: _321  and  _323
REMARK  133  A    between atoms: _323  and  _324
REMARK  134  A    between atoms: _323  and  _326
REMARK  135  A    between atoms: _326  and  _327
REMARK  136  A    between atoms: _330  and  _332
REMARK  137  A    between atoms: _332  and  _333
REMARK  138  A    between atoms: _332  and  _335
REMARK  139  A    between atoms: _335  and  _336
REMARK  140  A    between atoms: _339  and  _341
REMARK  141  A    between atoms: _341  and  _342
REMARK  142  A    between atoms: _341  and  _344
REMARK  143  A    between atoms: _344  and  _345
REMARK  144  A    between atoms: _348  and  _350
REMARK  145  A    between atoms: _350  and  _351
REMARK  146  A    between atoms: _350  and  _353
REMARK  147  A    between atoms: _353  and  _354
REMARK  148  A    between atoms: _354  and  _355
REMARK  149  A    between atoms: _355  and  _356
REMARK  150  A    between atoms: _365  and  _367
REMARK  151  A    between atoms: _367  and  _368
REMARK  152  A    between atoms: _367  and  _370
REMARK  153  A    between atoms: _370  and  _371
REMARK  154  A    between atoms: _376  and  _378
REMARK  155  A    between atoms: _378  and  _379
REMARK  156  A    between atoms: _382  and  _384
REMARK  157  A    between atoms: _384  and  _385
REMARK  158  A    between atoms: _384  and  _387
REMARK  159  A    between atoms: _387  and  _388
REMARK  160  A    between atoms: _391  and  _393
REMARK  161  A    between atoms: _393  and  _394
REMARK  162  A    between atoms: _397  and  _399
REMARK  163  A    between atoms: _399  and  _400
REMARK  164  A    between atoms: _399  and  _402
REMARK  165  A    between atoms: _402  and  _403
REMARK  166  A    between atoms: _408  and  _409
REMARK  167  A    between atoms: _411  and  _413
REMARK  168  A    between atoms: _413  and  _414
REMARK  169  A    between atoms: _417  and  _419
REMARK  170  A    between atoms: _419  and  _420
REMARK  171  A    between atoms: _419  and  _422
REMARK  172  A    between atoms: _422  and  _423
REMARK  173  A    between atoms: _426  and  _428
REMARK  174  A    between atoms: _428  and  _429
REMARK  175  A    between atoms: _428  and  _431
REMARK  176  A    between atoms: _431  and  _432
REMARK  177  A    between atoms: _432  and  _433
REMARK  178  A    between atoms: _433  and  _434
REMARK  179  A    between atoms: _434  and  _435
REMARK  180  A    between atoms: _439  and  _441
REMARK  181  A    between atoms: _441  and  _442
REMARK  182  A    between atoms: _441  and  _444
REMARK  183  A    between atoms: _444  and  _445
REMARK  184  A    between atoms: _450  and  _451
REMARK  185  A    between atoms: _453  and  _455
REMARK  186  A    between atoms: _455  and  _456
REMARK  187  A    between atoms: _455  and  _458
REMARK  188  A    between atoms: _458  and  _459
REMARK  189  A    between atoms: _464  and  _466
REMARK  190  A    between atoms: _466  and  _467
REMARK  191  A    between atoms: _469  and  _471
REMARK  192  A    between atoms: _471  and  _472
REMARK  193  A    between atoms: _471  and  _474
REMARK  194  A    between atoms: _474  and  _475
REMARK  195  A    between atoms: _478  and  _480
REMARK  196  A    between atoms: _480  and  _481
REMARK  197  A    between atoms: _480  and  _483
REMARK  198  A    between atoms: _486  and  _488
REMARK  199  A    between atoms: _488  and  _489
REMARK  200  A    between atoms: _488  and  _491
REMARK  201  A    between atoms: _491  and  _492
REMARK  202  A    between atoms: _495  and  _497
REMARK  203  A    between atoms: _497  and  _498
REMARK  204  A    between atoms: _497  and  _500
REMARK  205  A    between atoms: _500  and  _501
REMARK  206  A    between atoms: _507  and  _509
REMARK  207  A    between atoms: _509  and  _510
REMARK  208  A    between atoms: _509  and  _512
REMARK  209  A    between atoms: _512  and  _513
REMARK  210  A    between atoms: _513  and  _514
REMARK  211  A    between atoms: _519  and  _521
REMARK  212  A    between atoms: _521  and  _522
REMARK  213  A    between atoms: _525  and  _527
REMARK  214  A    between atoms: _527  and  _528
REMARK  215  A    between atoms: _531  and  _533
REMARK  216  A    between atoms: _533  and  _534
REMARK  217  A    between atoms: _533  and  _536
REMARK  218  A    between atoms: _536  and  _537
REMARK  219  A    between atoms: _540  and  _542
REMARK  220  A    between atoms: _542  and  _543
REMARK  221  A    between atoms: _542  and  _545
REMARK  222  A    between atoms: _545  and  _546
REMARK  223  A    between atoms: _551  and  _552
REMARK  224  A    between atoms: _554  and  _556
REMARK  225  A    between atoms: _556  and  _557
REMARK  226  A    between atoms: _560  and  _562
REMARK  227  A    between atoms: _562  and  _563
REMARK  228  A    between atoms: _567  and  _568
REMARK  229  A    between atoms: _573  and  _575
REMARK  230  A    between atoms: _575  and  _576
REMARK  231  A    between atoms: _575  and  _578
REMARK  232  A    between atoms: _578  and  _579
REMARK  233  A    between atoms: _585  and  _587
REMARK  234  A    between atoms: _587  and  _588
REMARK  235  A    between atoms: _587  and  _590
REMARK  236  A    between atoms: _590  and  _591
REMARK  237  A    between atoms: _596  and  _597
REMARK  238  A    between atoms: _599  and  _601
REMARK  239  A    between atoms: _601  and  _602
REMARK  240  A    between atoms: _601  and  _604
REMARK  241  A    between atoms: _604  and  _605
REMARK  242  A    between atoms: _605  and  _606
REMARK  243  A    between atoms: _606  and  _607
REMARK  244  A    between atoms: _607  and  _608
REMARK  245  A    between atoms: _612  and  _614
REMARK  246  A    between atoms: _614  and  _615
REMARK  247  A    between atoms: _614  and  _617
REMARK                            x       y       z     vdW  Elec       q    Type
REMARK                         _______ _______ _______ _____ _____    ______ ____
ROOT
ATOM      1  CB  PHE A   1       8.516   0.343  25.849  0.00  0.00    +0.051 C 
ENDROOT
BRANCH   1   2
ATOM      2  CG  PHE A   1       8.807  -0.213  24.493  0.00  0.00    -0.020 A 
ATOM      3  CD2 PHE A   1       9.036  -1.571  24.329  0.00  0.00    -0.004 A 
ATOM      4  CE2 PHE A   1       9.302  -2.089  23.087  0.00  0.00    -0.000 A 
ATOM      5  CZ  PHE A   1       9.340  -1.254  21.971  0.00  0.00    -0.000 A 
ATOM      6  CE1 PHE A   1       9.102   0.093  22.113  0.00  0.00    -0.000 A 
ATOM      7  CD1 PHE A   1       8.837   0.612  23.374  0.00  0.00    -0.004 A 
ENDBRANCH   1   2
BRANCH   1   8
ATOM      8  CA  PHE A   1       7.056   0.169  26.284  0.00  0.00    +0.137 C 
BRANCH   8   9
ATOM      9  N   PHE A   1       6.177   1.116  25.581  0.00  0.00    -0.239 NA
ATOM     10  H   PHE A   1       6.598   1.831  24.954  0.00  0.00    +0.142 HD
ENDBRANCH   8   9
BRANCH   8  11
ATOM     11  C   PHE A   1       6.966   0.260  27.815  0.00  0.00    +0.224 C 
ATOM     12  O   PHE A   1       7.379  -0.667  28.513  0.00  0.00    -0.287 OA
ENDBRANCH   8  11
ENDBRANCH   1   8
TORSDOF 4
REMARK  Name = ../refined-set-2016/2evl/2evl_pocket.pdb
REMARK  247 active torsions:
REMARK  status: ('A' for Active; 'I' for Inactive)
REMARK    1  A    between atoms: _1  and  _3
REMARK    2  A    between atoms: _3  and  _4
REMARK    3  A    between atoms: _3  and  _6
REMARK    4  A    between atoms: _6  and  _7
REMARK    5  A    between atoms: _13  and  _15
REMARK    6  A    between atoms: _15  and  _16
REMARK    7  A    between atoms: _15  and  _18
REMARK    8  A    between atoms: _18  and  _19
REMARK    9  A    between atoms: _22  and  _24
REMARK   10  A    between atoms: _24  and  _25
REMARK   11  A    between atoms: _24  and  _27
REMARK   12  A    between atoms: _30  and  _32
REMARK   13  A    between atoms: _32  and  _33
REMARK   14  A    between atoms: _32  and  _35
REMARK   15  A    between atoms: _35  and  _36
REMARK   16  A    between atoms: _42  and  _44
REMARK   17  A    between atoms: _44  and  _45
REMARK   18  A    between atoms: _44  and  _47
REMARK   19  A    between atoms: _47  and  _48
REMARK   20  A    between atoms: _52  and  _53
REMARK   21  A    between atoms: _58  and  _60
REMARK   22  A    between atoms: _60  and  _61
REMARK   23  A    between atoms: _60  and  _63
REMARK   24  A    between atoms: _63  and  _64
REMARK   25  A    between atoms: _67  and  _69
REMARK   26  A    between atoms: _69  and  _70
REMARK   27  A    between atoms: _69  and  _72
REMARK   28  A    between atoms: _72  and  _73
REMARK   29  A    between atoms: _73  and  _74
REMARK   30  A    between atoms: _74  and  _75
REMARK   31  A    between atoms: _75  and  _76
REMARK   32  A    between atoms: _80  and  _82
REMARK   33  A    between atoms: _82  and  _83
REMARK   34  A    between atoms: _86  and  _88
REMARK   35  A    between atoms: _88  and  _89
REMARK   36  A    between atoms: _88  and  _91
REMARK   37  A    between atoms: _91  and  _92
REMARK   38  A    between atoms: _95  and  _97
REMARK   39  A    between atoms: _97  and  _98
REMARK   40  A    between atoms: _97  and  _100
REMARK   41  A    between atoms: _100  and  _101
REMARK   42  A    between atoms: _104  and  _106
REMARK   43  A    between atoms: _106  and  _107
REMARK   44  A    between atoms: _109  and  _111
REMARK   45  A    between atoms: _111  and  _112
REMARK   46  A    between atoms: _111  and  _114
REMARK   47  A    between atoms: _114  and  _115
REMARK   48  A    between atoms: _120  and  _122
REMARK   49  A    between atoms: _122  and  _123
REMARK   50  A    between atoms: _122  and  _125
REMARK   51  A    between atoms: _125  and  _126
REMARK   52  A    between atoms: _129  and  _131
REMARK   53  A    between atoms: _131  and  _132
REMARK   54  A    between atoms: _131  and  _134
REMARK   55  A    between atoms: _134  and  _135
REMARK   56  A    between atoms: _135  and  _136
REMARK   57  A    between atoms: _136  and  _137
REMARK   58  A    between atoms: _137  and  _138
REMARK   59  A    between atoms: _142  and  _144
REMARK   60  A    between atoms: _144  and  _145
REMARK   61  A    between atoms: _144  and  _147
REMARK   62  A    between atoms: _147  and  _148
REMARK   63  A    between atoms: _151  and  _153
REMARK   64  A    between atoms: _153  and  _154
REMARK   65  A    between atoms: _153  and  _156
REMARK   66  A    between atoms: _156  and  _157
REMARK   67  A    between atoms: _157  and  _158
REMARK   68  A    between atoms: _158  and  _159
REMARK   69  A    between atoms: _159  and  _160
REMARK   70  A    between atoms: _164  and  _166
REMARK   71  A    between atoms: _166  and  _167
REMARK   72  A    between atoms: _169  and  _171
REMARK   73  A    between atoms: _171  and  _172
REMARK   74  A    between atoms: _171  and  _174
REMARK   75  A    between atoms: _174  and  _175
REMARK   76  A    between atoms: _178  and  _180
REMARK   77  A    between atoms: _180  and  _181
REMARK   78  A    between atoms: _184  and  _186
REMARK   79  A    between atoms: _186  and  _187
REMARK   80  A    between atoms: _186  and  _189
REMARK   81  A    between atoms: _189  and  _190
REMARK   82  A    between atoms: _193  and  _195
REMARK   83  A    between atoms: _195  and  _196
REMARK   84  A    between atoms: _195  and  _198
REMARK   85  A    between atoms: _198  and  _199
REMARK   86  A    between atoms: _199  and  _200
REMARK   87  A    between atoms: _202  and  _204
REMARK   88  A    between atoms: _204  and  _205
REMARK   89  A    between atoms: _204  and  _207
REMARK   90  A    between atoms: _207  and  _208
REMARK   91  A    between atoms: _218  and  _220
REMARK   92  A    between atoms: _220  and  _221
REMARK   93  A    between atoms: _220  and  _223
REMARK   94  A    between atoms: _223  and  _224
REMARK   95  A    between atoms: _227  and  _229
REMARK   96  A    between atoms: _229  and  _230
REMARK   97  A    between atoms: _229  and  _232
REMARK   98  A    between atoms: _232  and  _233
REMARK   99  A    between atoms: _233  and  _234
REMARK  100  A    between atoms: _234  and  _235
REMARK  101  A    between atoms: _235  and  _236
REMARK  102  A    between atoms: _240  and  _242
REMARK  103  A    between atoms: _242  and  _243
REMARK  104  A    between atoms: _242  and  _245
REMARK  105  A    between atoms: _245  and  _246
REMARK  106  A    between atoms: _246  and  _247
REMARK  107  A    between atoms: _247  and  _248
REMARK  108  A    between atoms: _257  and  _259
REMARK  109  A    between atoms: _259  and  _260
REMARK  110  A    between atoms: _262  and  _264
REMARK  111  A    between atoms: _264  and  _265
REMARK  112  A    between atoms: _264  and  _267
REMARK  113  A    between atoms: _267  and  _268
REMARK  114  A    between atoms: _271  and  _273
REMARK  115  A    between atoms: _273  and  _274
REMARK  116  A    between atoms: _273  and  _276
REMARK  117  A    between atoms: _276  and  _277
REMARK  118  A    between atoms: _277  and  _278
REMARK  119  A    between atoms: _278  and  _279
REMARK  120  A    between atoms: _288  and  _290
REMARK  121  A    between atoms: _290  and  _291
REMARK  122  A    between atoms: _290  and  _293
REMARK  123  A    between atoms: _293  and  _294
REMARK  124  A    between atoms: _300  and  _302
REMARK  125  A    between atoms: _302  and  _303
REMARK  126  A    between atoms: _302  and  _305
REMARK  127  A    between atoms: _305  and  _306
REMARK  128  A    between atoms: _309  and  _311
REMARK  129  A    between atoms: _311  and  _312
REMARK  130  A    between atoms: _311  and  _314
REMARK  131  A    between atoms: _314  and  _315
REMARK  132  A    between atoms: _321  and  _323
REMARK  133  A    between atoms: _323  and  _324
REMARK  134  A    between atoms: _323  and  _326
REMARK  135  A    between atoms: _326  and  _327
REMARK  136  A    between atoms: _330  and  _332
REMARK  137  A    between atoms: _332  and  _333
REMARK  138  A    between atoms: _332  and  _335
REMARK  139  A    between atoms: _335  and  _336
REMARK  140  A    between atoms: _339  and  _341
REMARK  141  A    between atoms: _341  and  _342
REMARK  142  A    between atoms: _341  and  _344
REMARK  143  A    between atoms: _344  and  _345
REMARK  144  A    between atoms: _348  and  _350
REMARK  145  A    between atoms: _350  and  _351
REMARK  146  A    between atoms: _350  and  _353
REMARK  147  A    between atoms: _353  and  _354
REMARK  148  A    between atoms: _354  and  _355
REMARK  149  A    between atoms: _355  and  _356
REMARK  150  A    between atoms: _365  and  _367
REMARK  151  A    between atoms: _367  and  _368
REMARK  152  A    between atoms: _367  and  _370
REMARK  153  A    between atoms: _370  and  _371
REMARK  154  A    between atoms: _376  and  _378
REMARK  155  A    between atoms: _378  and  _379
REMARK  156  A    between atoms: _382  and  _384
REMARK  157  A    between atoms: _384  and  _385
REMARK  158  A    between atoms: _384  and  _387
REMARK  159  A    between atoms: _387  and  _388
REMARK  160  A    between atoms: _391  and  _393
REMARK  161  A    between atoms: _393  and  _394
REMARK  162  A    between atoms: _397  and  _399
REMARK  163  A    between atoms: _399  and  _400
REMARK  164  A    between atoms: _399  and  _402
REMARK  165  A    between atoms: _402  and  _403
REMARK  166  A    between atoms: _408  and  _409
REMARK  167  A    between atoms: _411  and  _413
REMARK  168  A    between atoms: _413  and  _414
REMARK  169  A    between atoms: _417  and  _419
REMARK  170  A    between atoms: _419  and  _420
REMARK  171  A    between atoms: _419  and  _422
REMARK  172  A    between atoms: _422  and  _423
REMARK  173  A    between atoms: _426  and  _428
REMARK  174  A    between atoms: _428  and  _429
REMARK  175  A    between atoms: _428  and  _431
REMARK  176  A    between atoms: _431  and  _432
REMARK  177  A    between atoms: _432  and  _433
REMARK  178  A    between atoms: _433  and  _434
REMARK  179  A    between atoms: _434  and  _435
REMARK  180  A    between atoms: _439  and  _441
REMARK  181  A    between atoms: _441  and  _442
REMARK  182  A    between atoms: _441  and  _444
REMARK  183  A    between atoms: _444  and  _445
REMARK  184  A    between atoms: _450  and  _451
REMARK  185  A    between atoms: _453  and  _455
REMARK  186  A    between atoms: _455  and  _456
REMARK  187  A    between atoms: _455  and  _458
REMARK  188  A    between atoms: _458  and  _459
REMARK  189  A    between atoms: _464  and  _466
REMARK  190  A    between atoms: _466  and  _467
REMARK  191  A    between atoms: _469  and  _471
REMARK  192  A    between atoms: _471  and  _472
REMARK  193  A    between atoms: _471  and  _474
REMARK  194  A    between atoms: _474  and  _475
REMARK  195  A    between atoms: _478  and  _480
REMARK  196  A    between atoms: _480  and  _481
REMARK  197  A    between atoms: _480  and  _483
REMARK  198  A    between atoms: _486  and  _488
REMARK  199  A    between atoms: _488  and  _489
REMARK  200  A    between atoms: _488  and  _491
REMARK  201  A    between atoms: _491  and  _492
REMARK  202  A    between atoms: _495  and  _497
REMARK  203  A    between atoms: _497  and  _498
REMARK  204  A    between atoms: _497  and  _500
REMARK  205  A    between atoms: _500  and  _501
REMARK  206  A    between atoms: _507  and  _509
REMARK  207  A    between atoms: _509  and  _510
REMARK  208  A    between atoms: _509  and  _512
REMARK  209  A    between atoms: _512  and  _513
REMARK  210  A    between atoms: _513  and  _514
REMARK  211  A    between atoms: _519  and  _521
REMARK  212  A    between atoms: _521  and  _522
REMARK  213  A    between atoms: _525  and  _527
REMARK  214  A    between atoms: _527  and  _528
REMARK  215  A    between atoms: _531  and  _533
REMARK  216  A    between atoms: _533  and  _534
REMARK  217  A    between atoms: _533  and  _536
REMARK  218  A    between atoms: _536  and  _537
REMARK  219  A    between atoms: _540  and  _542
REMARK  220  A    between atoms: _542  and  _543
REMARK  221  A    between atoms: _542  and  _545
REMARK  222  A    between atoms: _545  and  _546
REMARK  223  A    between atoms: _551  and  _552
REMARK  224  A    between atoms: _554  and  _556
REMARK  225  A    between atoms: _556  and  _557
REMARK  226  A    between atoms: _560  and  _562
REMARK  227  A    between atoms: _562  and  _563
REMARK  228  A    between atoms: _567  and  _568
REMARK  229  A    between atoms: _573  and  _575
REMARK  230  A    between atoms: _575  and  _576
REMARK  231  A    between atoms: _575  and  _578
REMARK  232  A    between atoms: _578  and  _579
REMARK  233  A    between atoms: _585  and  _587
REMARK  234  A    between atoms: _587  and  _588
REMARK  235  A    between atoms: _587  and  _590
REMARK  236  A    between atoms: _590  and  _591
REMARK  237  A    between atoms: _596  and  _597
REMARK  238  A    between atoms: _599  and  _601
REMARK  239  A    between atoms: _601  and  _602
REMARK  240  A    between atoms: _601  and  _604
REMARK  241  A    between atoms: _604  and  _605
REMARK  242  A    between atoms: _605  and  _606
REMARK  243  A    between atoms: _606  and  _607
REMARK  244  A    between atoms: _607  and  _608
REMARK  245  A    between atoms: _612  and  _614
REMARK  246  A    between atoms: _614  and  _615
REMARK  247  A    between atoms: _614  and  _617
REMARK                            x       y       z     vdW  Elec       q    Type
REMARK                         _______ _______ _______ _____ _____    ______ ____
ROOT
ATOM      1  CA  LEU A   1       4.047  -3.980  28.587  0.00  0.00    +0.133 C 
ENDROOT
BRANCH   1   2
ATOM      2  N   LEU A   1       4.008  -2.544  28.910  0.00  0.00    -0.239 NA
ATOM      3  H   LEU A   1       4.884  -1.990  28.826  0.00  0.00    +0.142 HD
ENDBRANCH   1   2
BRANCH   1   4
ATOM      4  C   LEU A   1       4.287  -4.792  29.842  0.00  0.00    +0.224 C 
ATOM      5  O   LEU A   1       4.351  -6.021  29.787  0.00  0.00    -0.287 OA
ENDBRANCH   1   4
BRANCH   1   6
ATOM      6  CB  LEU A   1       5.149  -4.301  27.578  0.00  0.00    +0.025 C 
BRANCH   6   7
ATOM      7  CG  LEU A   1       4.755  -4.276  26.108  0.00  0.00    +0.002 C 
ATOM      8  CD2 LEU A   1       4.164  -2.934  25.735  0.00  0.00    +0.000 C 
ATOM      9  CD1 LEU A   1       5.966  -4.584  25.262  0.00  0.00    +0.000 C 
ENDBRANCH   6   7
ENDBRANCH   1   6
TORSDOF 4
REMARK  Name = ../refined-set-2016/2evl/2evl_pocket.pdb
REMARK  247 active torsions:
REMARK  status: ('A' for Active; 'I' for Inactive)
REMARK    1  A    between atoms: _1  and  _3
REMARK    2  A    between atoms: _3  and  _4
REMARK    3  A    between atoms: _3  and  _6
REMARK    4  A    between atoms: _6  and  _7
REMARK    5  A    between atoms: _13  and  _15
REMARK    6  A    between atoms: _15  and  _16
REMARK    7  A    between atoms: _15  and  _18
REMARK    8  A    between atoms: _18  and  _19
REMARK    9  A    between atoms: _22  and  _24
REMARK   10  A    between atoms: _24  and  _25
REMARK   11  A    between atoms: _24  and  _27
REMARK   12  A    between atoms: _30  and  _32
REMARK   13  A    between atoms: _32  and  _33
REMARK   14  A    between atoms: _32  and  _35
REMARK   15  A    between atoms: _35  and  _36
REMARK   16  A    between atoms: _42  and  _44
REMARK   17  A    between atoms: _44  and  _45
REMARK   18  A    between atoms: _44  and  _47
REMARK   19  A    between atoms: _47  and  _48
REMARK   20  A    between atoms: _52  and  _53
REMARK   21  A    between atoms: _58  and  _60
REMARK   22  A    between atoms: _60  and  _61
REMARK   23  A    between atoms: _60  and  _63
REMARK   24  A    between atoms: _63  and  _64
REMARK   25  A    between atoms: _67  and  _69
REMARK   26  A    between atoms: _69  and  _70
REMARK   27  A    between atoms: _69  and  _72
REMARK   28  A    between atoms: _72  and  _73
REMARK   29  A    between atoms: _73  and  _74
REMARK   30  A    between atoms: _74  and  _75
REMARK   31  A    between atoms: _75  and  _76
REMARK   32  A    between atoms: _80  and  _82
REMARK   33  A    between atoms: _82  and  _83
REMARK   34  A    between atoms: _86  and  _88
REMARK   35  A    between atoms: _88  and  _89
REMARK   36  A    between atoms: _88  and  _91
REMARK   37  A    between atoms: _91  and  _92
REMARK   38  A    between atoms: _95  and  _97
REMARK   39  A    between atoms: _97  and  _98
REMARK   40  A    between atoms: _97  and  _100
REMARK   41  A    between atoms: _100  and  _101
REMARK   42  A    between atoms: _104  and  _106
REMARK   43  A    between atoms: _106  and  _107
REMARK   44  A    between atoms: _109  and  _111
REMARK   45  A    between atoms: _111  and  _112
REMARK   46  A    between atoms: _111  and  _114
REMARK   47  A    between atoms: _114  and  _115
REMARK   48  A    between atoms: _120  and  _122
REMARK   49  A    between atoms: _122  and  _123
REMARK   50  A    between atoms: _122  and  _125
REMARK   51  A    between atoms: _125  and  _126
REMARK   52  A    between atoms: _129  and  _131
REMARK   53  A    between atoms: _131  and  _132
REMARK   54  A    between atoms: _131  and  _134
REMARK   55  A    between atoms: _134  and  _135
REMARK   56  A    between atoms: _135  and  _136
REMARK   57  A    between atoms: _136  and  _137
REMARK   58  A    between atoms: _137  and  _138
REMARK   59  A    between atoms: _142  and  _144
REMARK   60  A    between atoms: _144  and  _145
REMARK   61  A    between atoms: _144  and  _147
REMARK   62  A    between atoms: _147  and  _148
REMARK   63  A    between atoms: _151  and  _153
REMARK   64  A    between atoms: _153  and  _154
REMARK   65  A    between atoms: _153  and  _156
REMARK   66  A    between atoms: _156  and  _157
REMARK   67  A    between atoms: _157  and  _158
REMARK   68  A    between atoms: _158  and  _159
REMARK   69  A    between atoms: _159  and  _160
REMARK   70  A    between atoms: _164  and  _166
REMARK   71  A    between atoms: _166  and  _167
REMARK   72  A    between atoms: _169  and  _171
REMARK   73  A    between atoms: _171  and  _172
REMARK   74  A    between atoms: _171  and  _174
REMARK   75  A    between atoms: _174  and  _175
REMARK   76  A    between atoms: _178  and  _180
REMARK   77  A    between atoms: _180  and  _181
REMARK   78  A    between atoms: _184  and  _186
REMARK   79  A    between atoms: _186  and  _187
REMARK   80  A    between atoms: _186  and  _189
REMARK   81  A    between atoms: _189  and  _190
REMARK   82  A    between atoms: _193  and  _195
REMARK   83  A    between atoms: _195  and  _196
REMARK   84  A    between atoms: _195  and  _198
REMARK   85  A    between atoms: _198  and  _199
REMARK   86  A    between atoms: _199  and  _200
REMARK   87  A    between atoms: _202  and  _204
REMARK   88  A    between atoms: _204  and  _205
REMARK   89  A    between atoms: _204  and  _207
REMARK   90  A    between atoms: _207  and  _208
REMARK   91  A    between atoms: _218  and  _220
REMARK   92  A    between atoms: _220  and  _221
REMARK   93  A    between atoms: _220  and  _223
REMARK   94  A    between atoms: _223  and  _224
REMARK   95  A    between atoms: _227  and  _229
REMARK   96  A    between atoms: _229  and  _230
REMARK   97  A    between atoms: _229  and  _232
REMARK   98  A    between atoms: _232  and  _233
REMARK   99  A    between atoms: _233  and  _234
REMARK  100  A    between atoms: _234  and  _235
REMARK  101  A    between atoms: _235  and  _236
REMARK  102  A    between atoms: _240  and  _242
REMARK  103  A    between atoms: _242  and  _243
REMARK  104  A    between atoms: _242  and  _245
REMARK  105  A    between atoms: _245  and  _246
REMARK  106  A    between atoms: _246  and  _247
REMARK  107  A    between atoms: _247  and  _248
REMARK  108  A    between atoms: _257  and  _259
REMARK  109  A    between atoms: _259  and  _260
REMARK  110  A    between atoms: _262  and  _264
REMARK  111  A    between atoms: _264  and  _265
REMARK  112  A    between atoms: _264  and  _267
REMARK  113  A    between atoms: _267  and  _268
REMARK  114  A    between atoms: _271  and  _273
REMARK  115  A    between atoms: _273  and  _274
REMARK  116  A    between atoms: _273  and  _276
REMARK  117  A    between atoms: _276  and  _277
REMARK  118  A    between atoms: _277  and  _278
REMARK  119  A    between atoms: _278  and  _279
REMARK  120  A    between atoms: _288  and  _290
REMARK  121  A    between atoms: _290  and  _291
REMARK  122  A    between atoms: _290  and  _293
REMARK  123  A    between atoms: _293  and  _294
REMARK  124  A    between atoms: _300  and  _302
REMARK  125  A    between atoms: _302  and  _303
REMARK  126  A    between atoms: _302  and  _305
REMARK  127  A    between atoms: _305  and  _306
REMARK  128  A    between atoms: _309  and  _311
REMARK  129  A    between atoms: _311  and  _312
REMARK  130  A    between atoms: _311  and  _314
REMARK  131  A    between atoms: _314  and  _315
REMARK  132  A    between atoms: _321  and  _323
REMARK  133  A    between atoms: _323  and  _324
REMARK  134  A    between atoms: _323  and  _326
REMARK  135  A    between atoms: _326  and  _327
REMARK  136  A    between atoms: _330  and  _332
REMARK  137  A    between atoms: _332  and  _333
REMARK  138  A    between atoms: _332  and  _335
REMARK  139  A    between atoms: _335  and  _336
REMARK  140  A    between atoms: _339  and  _341
REMARK  141  A    between atoms: _341  and  _342
REMARK  142  A    between atoms: _341  and  _344
REMARK  143  A    between atoms: _344  and  _345
REMARK  144  A    between atoms: _348  and  _350
REMARK  145  A    between atoms: _350  and  _351
REMARK  146  A    between atoms: _350  and  _353
REMARK  147  A    between atoms: _353  and  _354
REMARK  148  A    between atoms: _354  and  _355
REMARK  149  A    between atoms: _355  and  _356
REMARK  150  A    between atoms: _365  and  _367
REMARK  151  A    between atoms: _367  and  _368
REMARK  152  A    between atoms: _367  and  _370
REMARK  153  A    between atoms: _370  and  _371
REMARK  154  A    between atoms: _376  and  _378
REMARK  155  A    between atoms: _378  and  _379
REMARK  156  A    between atoms: _382  and  _384
REMARK  157  A    between atoms: _384  and  _385
REMARK  158  A    between atoms: _384  and  _387
REMARK  159  A    between atoms: _387  and  _388
REMARK  160  A    between atoms: _391  and  _393
REMARK  161  A    between atoms: _393  and  _394
REMARK  162  A    between atoms: _397  and  _399
REMARK  163  A    between atoms: _399  and  _400
REMARK  164  A    between atoms: _399  and  _402
REMARK  165  A    between atoms: _402  and  _403
REMARK  166  A    between atoms: _408  and  _409
REMARK  167  A    between atoms: _411  and  _413
REMARK  168  A    between atoms: _413  and  _414
REMARK  169  A    between atoms: _417  and  _419
REMARK  170  A    between atoms: _419  and  _420
REMARK  171  A    between atoms: _419  and  _422
REMARK  172  A    between atoms: _422  and  _423
REMARK  173  A    between atoms: _426  and  _428
REMARK  174  A    between atoms: _428  and  _429
REMARK  175  A    between atoms: _428  and  _431
REMARK  176  A    between atoms: _431  and  _432
REMARK  177  A    between atoms: _432  and  _433
REMARK  178  A    between atoms: _433  and  _434
REMARK  179  A    between atoms: _434  and  _435
REMARK  180  A    between atoms: _439  and  _441
REMARK  181  A    between atoms: _441  and  _442
REMARK  182  A    between atoms: _441  and  _444
REMARK  183  A    between atoms: _444  and  _445
REMARK  184  A    between atoms: _450  and  _451
REMARK  185  A    between atoms: _453  and  _455
REMARK  186  A    between atoms: _455  and  _456
REMARK  187  A    between atoms: _455  and  _458
REMARK  188  A    between atoms: _458  and  _459
REMARK  189  A    between atoms: _464  and  _466
REMARK  190  A    between atoms: _466  and  _467
REMARK  191  A    between atoms: _469  and  _471
REMARK  192  A    between atoms: _471  and  _472
REMARK  193  A    between atoms: _471  and  _474
REMARK  194  A    between atoms: _474  and  _475
REMARK  195  A    between atoms: _478  and  _480
REMARK  196  A    between atoms: _480  and  _481
REMARK  197  A    between atoms: _480  and  _483
REMARK  198  A    between atoms: _486  and  _488
REMARK  199  A    between atoms: _488  and  _489
REMARK  200  A    between atoms: _488  and  _491
REMARK  201  A    between atoms: _491  and  _492
REMARK  202  A    between atoms: _495  and  _497
REMARK  203  A    between atoms: _497  and  _498
REMARK  204  A    between atoms: _497  and  _500
REMARK  205  A    between atoms: _500  and  _501
REMARK  206  A    between atoms: _507  and  _509
REMARK  207  A    between atoms: _509  and  _510
REMARK  208  A    between atoms: _509  and  _512
REMARK  209  A    between atoms: _512  and  _513
REMARK  210  A    between atoms: _513  and  _514
REMARK  211  A    between atoms: _519  and  _521
REMARK  212  A    between atoms: _521  and  _522
REMARK  213  A    between atoms: _525  and  _527
REMARK  214  A    between atoms: _527  and  _528
REMARK  215  A    between atoms: _531  and  _533
REMARK  216  A    between atoms: _533  and  _534
REMARK  217  A    between atoms: _533  and  _536
REMARK  218  A    between atoms: _536  and  _537
REMARK  219  A    between atoms: _540  and  _542
REMARK  220  A    between atoms: _542  and  _543
REMARK  221  A    between atoms: _542  and  _545
REMARK  222  A    between atoms: _545  and  _546
REMARK  223  A    between atoms: _551  and  _552
REMARK  224  A    between atoms: _554  and  _556
REMARK  225  A    between atoms: _556  and  _557
REMARK  226  A    between atoms: _560  and  _562
REMARK  227  A    between atoms: _562  and  _563
REMARK  228  A    between atoms: _567  and  _568
REMARK  229  A    between atoms: _573  and  _575
REMARK  230  A    between atoms: _575  and  _576
REMARK  231  A    between atoms: _575  and  _578
REMARK  232  A    between atoms: _578  and  _579
REMARK  233  A    between atoms: _585  and  _587
REMARK  234  A    between atoms: _587  and  _588
REMARK  235  A    between atoms: _587  and  _590
REMARK  236  A    between atoms: _590  and  _591
REMARK  237  A    between atoms: _596  and  _597
REMARK  238  A    between atoms: _599  and  _601
REMARK  239  A    between atoms: _601  and  _602
REMARK  240  A    between atoms: _601  and  _604
REMARK  241  A    between atoms: _604  and  _605
REMARK  242  A    between atoms: _605  and  _606
REMARK  243  A    between atoms: _606  and  _607
REMARK  244  A    between atoms: _607  and  _608
REMARK  245  A    between atoms: _612  and  _614
REMARK  246  A    between atoms: _614  and  _615
REMARK  247  A    between atoms: _614  and  _617
REMARK                            x       y       z     vdW  Elec       q    Type
REMARK                         _______ _______ _______ _____ _____    ______ ____
ROOT
ATOM      1  CA  ILE A   5      14.638  -1.411  24.650  0.00  0.00    +0.149 C 
ENDROOT
BRANCH   1   3
ATOM      2  C   PRO A   4      16.297  -0.725  26.306  0.00  0.00    +0.241 C 
ATOM      3  N   ILE A   5      15.211  -1.419  25.997  0.00  0.00    -0.297 N 
ATOM      4  H   ILE A   5      14.751  -1.988  26.736  0.00  0.00    +0.150 HD
ATOM      5  O   PRO A   4      16.954  -0.113  25.485  0.00  0.00    -0.273 OA
BRANCH   2  11
ATOM      6  C   THR A   3      14.696   0.063  28.820  0.00  0.00    +0.246 C 
ATOM      7  N   PRO A   4      15.621  -0.909  28.692  0.00  0.00    -0.272 N 
ATOM      8  CD  PRO A   4      15.691  -2.190  29.412  0.00  0.00    +0.094 C 
ATOM      9  CG  PRO A   4      17.126  -2.533  29.320  0.00  0.00    +0.024 C 
ATOM     10  CB  PRO A   4      17.563  -2.047  28.001  0.00  0.00    +0.031 C 
ATOM     11  CA  PRO A   4      16.734  -0.772  27.756  0.00  0.00    +0.152 C 
ATOM     12  O   THR A   3      14.782   1.129  28.223  0.00  0.00    -0.273 OA
BRANCH   6  13
ATOM     13  CA  THR A   3      13.489  -0.197  29.755  0.00  0.00    +0.176 C 
BRANCH  13  15
ATOM     14  C   PHE A   2      12.302  -1.849  28.432  0.00  0.00    +0.241 C 
ATOM     15  N   THR A   3      12.910  -1.526  29.571  0.00  0.00    -0.295 N 
ATOM     16  H   THR A   3      12.974  -2.226  30.337  0.00  0.00    +0.150 HD
ATOM     17  O   PHE A   2      12.276  -1.082  27.462  0.00  0.00    -0.273 OA
BRANCH  14  18
ATOM     18  CA  PHE A   2      11.642  -3.228  28.340  0.00  0.00    +0.153 C 
BRANCH  18  20
ATOM     19  C   VAL A   1      12.974  -4.820  29.643  0.00  0.00    +0.238 C 
ATOM     20  N   PHE A   2      11.861  -4.105  29.493  0.00  0.00    -0.297 N 
ATOM     21  H   PHE A   2      11.121  -4.171  30.220  0.00  0.00    +0.150 HD
ATOM     22  O   VAL A   1      13.901  -4.775  28.843  0.00  0.00    -0.274 OA
BRANCH  19  23
ATOM     23  CA  VAL A   1      13.068  -5.701  30.902  0.00  0.00    +0.145 C 
BRANCH  23  24
ATOM     24  CB  VAL A   1      12.569  -7.151  30.611  0.00  0.00    +0.025 C 
ATOM     25  CG2 VAL A   1      12.909  -8.056  31.784  0.00  0.00    +0.002 C 
ATOM     26  CG1 VAL A   1      13.143  -7.704  29.300  0.00  0.00    +0.002 C 
ENDBRANCH  23  24
BRANCH  23  27
ATOM     27  N   VAL A   1      12.297  -5.117  31.997  0.00  0.00    -0.238 NA
ATOM     28  H   VAL A   1      11.555  -5.686  32.453  0.00  0.00    +0.142 HD
ENDBRANCH  23  27
ENDBRANCH  19  23
ENDBRANCH  18  20
BRANCH  18  29
ATOM     29  CB  PHE A   2      10.136  -3.100  28.074  0.00  0.00    +0.055 C 
BRANCH  29  30
ATOM     30  CG  PHE A   2       9.490  -4.415  27.722  0.00  0.00    -0.020 A 
ATOM     31  CD2 PHE A   2       8.609  -5.037  28.595  0.00  0.00    -0.004 A 
ATOM     32  CE2 PHE A   2       8.042  -6.267  28.274  0.00  0.00    -0.000 A 
ATOM     33  CZ  PHE A   2       8.372  -6.893  27.083  0.00  0.00    -0.000 A 
ATOM     34  CE1 PHE A   2       9.259  -6.288  26.215  0.00  0.00    -0.000 A 
ATOM     35  CD1 PHE A   2       9.810  -5.057  26.531  0.00  0.00    -0.004 A 
ENDBRANCH  29  30
ENDBRANCH  18  29
ENDBRANCH  14  18
ENDBRANCH  13  15
BRANCH  13  36
ATOM     36  CB  THR A   3      13.824   0.066  31.243  0.00  0.00    +0.137 C 
ATOM     37  CG2 THR A   3      14.670   1.345  31.423  0.00  0.00    +0.034 C 
BRANCH  36  38
ATOM     38  OG1 THR A   3      12.599   0.213  31.976  0.00  0.00    -0.382 OA
ATOM     39  HG1 THR A   3      12.805   0.382  32.930  0.00  0.00    +0.210 HD
ENDBRANCH  36  38
ENDBRANCH  13  36
ENDBRANCH   6  13
ENDBRANCH   2  11
ENDBRANCH   1   3
BRANCH   1  40
ATOM     40  C   ILE A   5      14.125  -0.021  24.286  0.00  0.00    +0.241 C 
ATOM     41  N   LYS A   6      13.332   0.561  25.185  0.00  0.00    -0.297 N 
ATOM     42  H   LYS A   6      13.046   0.025  26.029  0.00  0.00    +0.150 HD
ATOM     43  O   ILE A   5      14.432   0.501  23.206  0.00  0.00    -0.273 OA
BRANCH  41  44
ATOM     44  CA  LYS A   6      12.856   1.923  25.019  0.00  0.00    +0.149 C 
BRANCH  44  45
ATOM     45  C   LYS A   6      14.035   2.871  24.826  0.00  0.00    +0.241 C 
ATOM     46  N   ALA A   7      15.123   2.672  25.575  0.00  0.00    -0.297 N 
ATOM     47  H   ALA A   7      15.150   1.861  26.226  0.00  0.00    +0.150 HD
ATOM     48  O   LYS A   6      13.963   3.758  23.985  0.00  0.00    -0.273 OA
BRANCH  46  49
ATOM     49  CA  ALA A   7      16.286   3.574  25.501  0.00  0.00    +0.149 C 
ATOM     50  CB  ALA A   7      17.308   3.251  26.601  0.00  0.00    +0.031 C 
BRANCH  49  51
ATOM     51  C   ALA A   7      16.980   3.537  24.144  0.00  0.00    +0.241 C 
ATOM     52  O   ALA A   7      17.489   4.546  23.688  0.00  0.00    -0.273 OA
ATOM     53  N   ASP A   8      17.036   2.370  23.520  0.00  0.00    -0.297 N 
ATOM     54  H   ASP A   8      16.604   1.532  23.958  0.00  0.00    +0.150 HD
BRANCH  53  55
ATOM     55  CA  ASP A   8      17.699   2.247  22.221  0.00  0.00    +0.160 C 
BRANCH  55  56
ATOM     56  C   ASP A   8      16.911   2.998  21.149  0.00  0.00    +0.241 C 
ATOM     57  N   ILE A   9      15.595   2.810  21.159  0.00  0.00    -0.298 N 
ATOM     58  H   ILE A   9      15.182   2.199  21.893  0.00  0.00    +0.150 HD
ATOM     59  O   ASP A   8      17.491   3.723  20.353  0.00  0.00    -0.273 OA
BRANCH  57  60
ATOM     60  CA  ILE A   9      14.717   3.423  20.188  0.00  0.00    +0.137 C 
BRANCH  60  61
ATOM     61  C   ILE A   9      14.715   4.935  20.379  0.00  0.00    +0.227 C 
ATOM     62  O   ILE A   9      14.975   5.683  19.424  0.00  0.00    -0.286 OA
ENDBRANCH  60  61
BRANCH  60  63
ATOM     63  CB  ILE A   9      13.262   2.832  20.250  0.00  0.00    +0.026 C 
ATOM     64  CG2 ILE A   9      12.386   3.560  19.274  0.00  0.00    +0.002 C 
BRANCH  63  65
ATOM     65  CG1 ILE A   9      13.297   1.324  19.891  0.00  0.00    +0.002 C 
ATOM     66  CD1 ILE A   9      12.050   0.558  20.054  0.00  0.00    +0.000 C 
ENDBRANCH  63  65
ENDBRANCH  60  63
ENDBRANCH  57  60
ENDBRANCH  55  56
BRANCH  55  67
ATOM     67  CB  ASP A   8      17.835   0.785  21.801  0.00  0.00    +0.143 C 
BRANCH  67  68
ATOM     68  CG  ASP A   8      18.560   0.642  20.503  0.00  0.00    +0.367 C 
ATOM     69  OD2 ASP A   8      19.796   0.456  20.536  0.00  0.00    -0.246 OA
ATOM     70  OD1 ASP A   8      17.910   0.755  19.442  0.00  0.00    -0.246 OA
ENDBRANCH  67  68
ENDBRANCH  55  67
ENDBRANCH  53  55
ENDBRANCH  49  51
ENDBRANCH  46  49
ENDBRANCH  44  45
BRANCH  44  71
ATOM     71  CB  LYS A   6      12.002   2.374  26.218  0.00  0.00    +0.029 C 
BRANCH  71  72
ATOM     72  CG  LYS A   6      11.377   3.781  26.052  0.00  0.00    +0.000 C 
BRANCH  72  73
ATOM     73  CD  LYS A   6      10.664   4.322  27.336  0.00  0.00    -0.024 C 
BRANCH  73  74
ATOM     74  CE  LYS A   6      11.607   5.125  28.275  0.00  0.00    -0.086 C 
BRANCH  74  75
ATOM     75  NZ  LYS A   6      10.898   6.279  29.031  0.00  0.00    +0.380 N 
ATOM     76  HZ1 LYS A   6      11.586   6.769  29.637  0.00  0.00    -0.089 HD
ATOM     77  HZ2 LYS A   6      10.134   5.889  29.618  0.00  0.00    -0.089 HD
ATOM     78  HZ3 LYS A   6      10.500   6.950  28.343  0.00  0.00    -0.089 HD
ENDBRANCH  74  75
ENDBRANCH  73  74
ENDBRANCH  72  73
ENDBRANCH  71  72
ENDBRANCH  44  71
ENDBRANCH  41  44
ENDBRANCH   1  40
BRANCH   1  79
ATOM     79  CB  ILE A   5      13.510  -2.453  24.534  0.00  0.00    +0.027 C 
ATOM     80  CG2 ILE A   5      12.626  -2.185  23.309  0.00  0.00    +0.002 C 
BRANCH  79  81
ATOM     81  CG1 ILE A   5      14.132  -3.843  24.437  0.00  0.00    +0.002 C 
ATOM     82  CD1 ILE A   5      13.134  -5.008  24.684  0.00  0.00    +0.000 C 
ENDBRANCH  79  81
ENDBRANCH   1  79
TORSDOF 33
REMARK  Name = ../refined-set-2016/2evl/2evl_pocket.pdb
REMARK  247 active torsions:
REMARK  status: ('A' for Active; 'I' for Inactive)
REMARK    1  A    between atoms: _1  and  _3
REMARK    2  A    between atoms: _3  and  _4
REMARK    3  A    between atoms: _3  and  _6
REMARK    4  A    between atoms: _6  and  _7
REMARK    5  A    between atoms: _13  and  _15
REMARK    6  A    between atoms: _15  and  _16
REMARK    7  A    between atoms: _15  and  _18
REMARK    8  A    between atoms: _18  and  _19
REMARK    9  A    between atoms: _22  and  _24
REMARK   10  A    between atoms: _24  and  _25
REMARK   11  A    between atoms: _24  and  _27
REMARK   12  A    between atoms: _30  and  _32
REMARK   13  A    between atoms: _32  and  _33
REMARK   14  A    between atoms: _32  and  _35
REMARK   15  A    between atoms: _35  and  _36
REMARK   16  A    between atoms: _42  and  _44
REMARK   17  A    between atoms: _44  and  _45
REMARK   18  A    between atoms: _44  and  _47
REMARK   19  A    between atoms: _47  and  _48
REMARK   20  A    between atoms: _52  and  _53
REMARK   21  A    between atoms: _58  and  _60
REMARK   22  A    between atoms: _60  and  _61
REMARK   23  A    between atoms: _60  and  _63
REMARK   24  A    between atoms: _63  and  _64
REMARK   25  A    between atoms: _67  and  _69
REMARK   26  A    between atoms: _69  and  _70
REMARK   27  A    between atoms: _69  and  _72
REMARK   28  A    between atoms: _72  and  _73
REMARK   29  A    between atoms: _73  and  _74
REMARK   30  A    between atoms: _74  and  _75
REMARK   31  A    between atoms: _75  and  _76
REMARK   32  A    between atoms: _80  and  _82
REMARK   33  A    between atoms: _82  and  _83
REMARK   34  A    between atoms: _86  and  _88
REMARK   35  A    between atoms: _88  and  _89
REMARK   36  A    between atoms: _88  and  _91
REMARK   37  A    between atoms: _91  and  _92
REMARK   38  A    between atoms: _95  and  _97
REMARK   39  A    between atoms: _97  and  _98
REMARK   40  A    between atoms: _97  and  _100
REMARK   41  A    between atoms: _100  and  _101
REMARK   42  A    between atoms: _104  and  _106
REMARK   43  A    between atoms: _106  and  _107
REMARK   44  A    between atoms: _109  and  _111
REMARK   45  A    between atoms: _111  and  _112
REMARK   46  A    between atoms: _111  and  _114
REMARK   47  A    between atoms: _114  and  _115
REMARK   48  A    between atoms: _120  and  _122
REMARK   49  A    between atoms: _122  and  _123
REMARK   50  A    between atoms: _122  and  _125
REMARK   51  A    between atoms: _125  and  _126
REMARK   52  A    between atoms: _129  and  _131
REMARK   53  A    between atoms: _131  and  _132
REMARK   54  A    between atoms: _131  and  _134
REMARK   55  A    between atoms: _134  and  _135
REMARK   56  A    between atoms: _135  and  _136
REMARK   57  A    between atoms: _136  and  _137
REMARK   58  A    between atoms: _137  and  _138
REMARK   59  A    between atoms: _142  and  _144
REMARK   60  A    between atoms: _144  and  _145
REMARK   61  A    between atoms: _144  and  _147
REMARK   62  A    between atoms: _147  and  _148
REMARK   63  A    between atoms: _151  and  _153
REMARK   64  A    between atoms: _153  and  _154
REMARK   65  A    between atoms: _153  and  _156
REMARK   66  A    between atoms: _156  and  _157
REMARK   67  A    between atoms: _157  and  _158
REMARK   68  A    between atoms: _158  and  _159
REMARK   69  A    between atoms: _159  and  _160
REMARK   70  A    between atoms: _164  and  _166
REMARK   71  A    between atoms: _166  and  _167
REMARK   72  A    between atoms: _169  and  _171
REMARK   73  A    between atoms: _171  and  _172
REMARK   74  A    between atoms: _171  and  _174
REMARK   75  A    between atoms: _174  and  _175
REMARK   76  A    between atoms: _178  and  _180
REMARK   77  A    between atoms: _180  and  _181
REMARK   78  A    between atoms: _184  and  _186
REMARK   79  A    between atoms: _186  and  _187
REMARK   80  A    between atoms: _186  and  _189
REMARK   81  A    between atoms: _189  and  _190
REMARK   82  A    between atoms: _193  and  _195
REMARK   83  A    between atoms: _195  and  _196
REMARK   84  A    between atoms: _195  and  _198
REMARK   85  A    between atoms: _198  and  _199
REMARK   86  A    between atoms: _199  and  _200
REMARK   87  A    between atoms: _202  and  _204
REMARK   88  A    between atoms: _204  and  _205
REMARK   89  A    between atoms: _204  and  _207
REMARK   90  A    between atoms: _207  and  _208
REMARK   91  A    between atoms: _218  and  _220
REMARK   92  A    between atoms: _220  and  _221
REMARK   93  A    between atoms: _220  and  _223
REMARK   94  A    between atoms: _223  and  _224
REMARK   95  A    between atoms: _227  and  _229
REMARK   96  A    between atoms: _229  and  _230
REMARK   97  A    between atoms: _229  and  _232
REMARK   98  A    between atoms: _232  and  _233
REMARK   99  A    between atoms: _233  and  _234
REMARK  100  A    between atoms: _234  and  _235
REMARK  101  A    between atoms: _235  and  _236
REMARK  102  A    between atoms: _240  and  _242
REMARK  103  A    between atoms: _242  and  _243
REMARK  104  A    between atoms: _242  and  _245
REMARK  105  A    between atoms: _245  and  _246
REMARK  106  A    between atoms: _246  and  _247
REMARK  107  A    between atoms: _247  and  _248
REMARK  108  A    between atoms: _257  and  _259
REMARK  109  A    between atoms: _259  and  _260
REMARK  110  A    between atoms: _262  and  _264
REMARK  111  A    between atoms: _264  and  _265
REMARK  112  A    between atoms: _264  and  _267
REMARK  113  A    between atoms: _267  and  _268
REMARK  114  A    between atoms: _271  and  _273
REMARK  115  A    between atoms: _273  and  _274
REMARK  116  A    between atoms: _273  and  _276
REMARK  117  A    between atoms: _276  and  _277
REMARK  118  A    between atoms: _277  and  _278
REMARK  119  A    between atoms: _278  and  _279
REMARK  120  A    between atoms: _288  and  _290
REMARK  121  A    between atoms: _290  and  _291
REMARK  122  A    between atoms: _290  and  _293
REMARK  123  A    between atoms: _293  and  _294
REMARK  124  A    between atoms: _300  and  _302
REMARK  125  A    between atoms: _302  and  _303
REMARK  126  A    between atoms: _302  and  _305
REMARK  127  A    between atoms: _305  and  _306
REMARK  128  A    between atoms: _309  and  _311
REMARK  129  A    between atoms: _311  and  _312
REMARK  130  A    between atoms: _311  and  _314
REMARK  131  A    between atoms: _314  and  _315
REMARK  132  A    between atoms: _321  and  _323
REMARK  133  A    between atoms: _323  and  _324
REMARK  134  A    between atoms: _323  and  _326
REMARK  135  A    between atoms: _326  and  _327
REMARK  136  A    between atoms: _330  and  _332
REMARK  137  A    between atoms: _332  and  _333
REMARK  138  A    between atoms: _332  and  _335
REMARK  139  A    between atoms: _335  and  _336
REMARK  140  A    between atoms: _339  and  _341
REMARK  141  A    between atoms: _341  and  _342
REMARK  142  A    between atoms: _341  and  _344
REMARK  143  A    between atoms: _344  and  _345
REMARK  144  A    between atoms: _348  and  _350
REMARK  145  A    between atoms: _350  and  _351
REMARK  146  A    between atoms: _350  and  _353
REMARK  147  A    between atoms: _353  and  _354
REMARK  148  A    between atoms: _354  and  _355
REMARK  149  A    between atoms: _355  and  _356
REMARK  150  A    between atoms: _365  and  _367
REMARK  151  A    between atoms: _367  and  _368
REMARK  152  A    between atoms: _367  and  _370
REMARK  153  A    between atoms: _370  and  _371
REMARK  154  A    between atoms: _376  and  _378
REMARK  155  A    between atoms: _378  and  _379
REMARK  156  A    between atoms: _382  and  _384
REMARK  157  A    between atoms: _384  and  _385
REMARK  158  A    between atoms: _384  and  _387
REMARK  159  A    between atoms: _387  and  _388
REMARK  160  A    between atoms: _391  and  _393
REMARK  161  A    between atoms: _393  and  _394
REMARK  162  A    between atoms: _397  and  _399
REMARK  163  A    between atoms: _399  and  _400
REMARK  164  A    between atoms: _399  and  _402
REMARK  165  A    between atoms: _402  and  _403
REMARK  166  A    between atoms: _408  and  _409
REMARK  167  A    between atoms: _411  and  _413
REMARK  168  A    between atoms: _413  and  _414
REMARK  169  A    between atoms: _417  and  _419
REMARK  170  A    between atoms: _419  and  _420
REMARK  171  A    between atoms: _419  and  _422
REMARK  172  A    between atoms: _422  and  _423
REMARK  173  A    between atoms: _426  and  _428
REMARK  174  A    between atoms: _428  and  _429
REMARK  175  A    between atoms: _428  and  _431
REMARK  176  A    between atoms: _431  and  _432
REMARK  177  A    between atoms: _432  and  _433
REMARK  178  A    between atoms: _433  and  _434
REMARK  179  A    between atoms: _434  and  _435
REMARK  180  A    between atoms: _439  and  _441
REMARK  181  A    between atoms: _441  and  _442
REMARK  182  A    between atoms: _441  and  _444
REMARK  183  A    between atoms: _444  and  _445
REMARK  184  A    between atoms: _450  and  _451
REMARK  185  A    between atoms: _453  and  _455
REMARK  186  A    between atoms: _455  and  _456
REMARK  187  A    between atoms: _455  and  _458
REMARK  188  A    between atoms: _458  and  _459
REMARK  189  A    between atoms: _464  and  _466
REMARK  190  A    between atoms: _466  and  _467
REMARK  191  A    between atoms: _469  and  _471
REMARK  192  A    between atoms: _471  and  _472
REMARK  193  A    between atoms: _471  and  _474
REMARK  194  A    between atoms: _474  and  _475
REMARK  195  A    between atoms: _478  and  _480
REMARK  196  A    between atoms: _480  and  _481
REMARK  197  A    between atoms: _480  and  _483
REMARK  198  A    between atoms: _486  and  _488
REMARK  199  A    between atoms: _488  and  _489
REMARK  200  A    between atoms: _488  and  _491
REMARK  201  A    between atoms: _491  and  _492
REMARK  202  A    between atoms: _495  and  _497
REMARK  203  A    between atoms: _497  and  _498
REMARK  204  A    between atoms: _497  and  _500
REMARK  205  A    between atoms: _500  and  _501
REMARK  206  A    between atoms: _507  and  _509
REMARK  207  A    between atoms: _509  and  _510
REMARK  208  A    between atoms: _509  and  _512
REMARK  209  A    between atoms: _512  and  _513
REMARK  210  A    between atoms: _513  and  _514
REMARK  211  A    between atoms: _519  and  _521
REMARK  212  A    between atoms: _521  and  _522
REMARK  213  A    between atoms: _525  and  _527
REMARK  214  A    between atoms: _527  and  _528
REMARK  215  A    between atoms: _531  and  _533
REMARK  216  A    between atoms: _533  and  _534
REMARK  217  A    between atoms: _533  and  _536
REMARK  218  A    between atoms: _536  and  _537
REMARK  219  A    between atoms: _540  and  _542
REMARK  220  A    between atoms: _542  and  _543
REMARK  221  A    between atoms: _542  and  _545
REMARK  222  A    between atoms: _545  and  _546
REMARK  223  A    between atoms: _551  and  _552
REMARK  224  A    between atoms: _554  and  _556
REMARK  225  A    between atoms: _556  and  _557
REMARK  226  A    between atoms: _560  and  _562
REMARK  227  A    between atoms: _562  and  _563
REMARK  228  A    between atoms: _567  and  _568
REMARK  229  A    between atoms: _573  and  _575
REMARK  230  A    between atoms: _575  and  _576
REMARK  231  A    between atoms: _575  and  _578
REMARK  232  A    between atoms: _578  and  _579
REMARK  233  A    between atoms: _585  and  _587
REMARK  234  A    between atoms: _587  and  _588
REMARK  235  A    between atoms: _587  and  _590
REMARK  236  A    between atoms: _590  and  _591
REMARK  237  A    between atoms: _596  and  _597
REMARK  238  A    between atoms: _599  and  _601
REMARK  239  A    between atoms: _601  and  _602
REMARK  240  A    between atoms: _601  and  _604
REMARK  241  A    between atoms: _604  and  _605
REMARK  242  A    between atoms: _605  and  _606
REMARK  243  A    between atoms: _606  and  _607
REMARK  244  A    between atoms: _607  and  _608
REMARK  245  A    between atoms: _612  and  _614
REMARK  246  A    between atoms: _614  and  _615
REMARK  247  A    between atoms: _614  and  _617
REMARK                            x       y       z     vdW  Elec       q    Type
REMARK                         _______ _______ _______ _____ _____    ______ ____
ROOT
ATOM      1  CA  ASN A   2      18.247   6.800  18.156  0.00  0.00    +0.158 C 
ENDROOT
BRANCH   1   4
ATOM      2  C   GLY A   1      18.531   7.512  20.472  0.00  0.00    +0.240 C 
ATOM      3  O   GLY A   1      19.110   8.536  20.136  0.00  0.00    -0.274 OA
ATOM      4  N   ASN A   2      18.090   6.611  19.597  0.00  0.00    -0.297 N 
ATOM      5  H   ASN A   2      17.622   5.751  19.947  0.00  0.00    +0.150 HD
BRANCH   2   6
ATOM      6  CA  GLY A   1      18.247   7.223  21.928  0.00  0.00    +0.169 C 
BRANCH   6   7
ATOM      7  N   GLY A   1      16.894   6.713  22.105  0.00  0.00    -0.236 NA
ATOM      8  H   GLY A   1      16.756   5.784  22.553  0.00  0.00    +0.142 HD
ENDBRANCH   6   7
ENDBRANCH   2   6
ENDBRANCH   1   4
BRANCH   1   9
ATOM      9  C   ASN A   2      17.400   7.917  17.607  0.00  0.00    +0.241 C 
ATOM     10  N   ILE A   3      16.146   8.005  18.066  0.00  0.00    -0.298 N 
ATOM     11  H   ILE A   3      15.778   7.253  18.683  0.00  0.00    +0.150 HD
ATOM     12  O   ASN A   2      17.883   8.698  16.789  0.00  0.00    -0.273 OA
BRANCH  10  13
ATOM     13  CA  ILE A   3      15.282   9.130  17.722  0.00  0.00    +0.137 C 
BRANCH  13  14
ATOM     14  CB  ILE A   3      13.875   9.011  18.385  0.00  0.00    +0.026 C 
ATOM     15  CG2 ILE A   3      13.049  10.285  18.107  0.00  0.00    +0.002 C 
BRANCH  14  16
ATOM     16  CG1 ILE A   3      13.116   7.823  17.787  0.00  0.00    +0.002 C 
ATOM     17  CD1 ILE A   3      11.739   7.556  18.418  0.00  0.00    +0.000 C 
ENDBRANCH  14  16
ENDBRANCH  13  14
BRANCH  13  18
ATOM     18  C   ILE A   3      15.948  10.469  18.082  0.00  0.00    +0.227 C 
ATOM     19  O   ILE A   3      15.998  11.399  17.263  0.00  0.00    -0.286 OA
ENDBRANCH  13  18
ENDBRANCH  10  13
ENDBRANCH   1   9
BRANCH   1  20
ATOM     20  CB  ASN A   2      17.970   5.505  17.414  0.00  0.00    +0.114 C 
BRANCH  20  21
ATOM     21  CG  ASN A   2      19.130   4.556  17.484  0.00  0.00    +0.222 C 
ATOM     22  ND2 ASN A   2      18.828   3.262  17.537  0.00  0.00    -0.329 N 
ATOM     23 HD21 ASN A   2      17.833   2.961  17.559  0.00  0.00    +0.145 HD
ATOM     24 HD22 ASN A   2      19.587   2.551  17.556  0.00  0.00    +0.145 HD
ATOM     25  OD1 ASN A   2      20.306   4.977  17.455  0.00  0.00    -0.275 OA
ENDBRANCH  20  21
ENDBRANCH   1  20
TORSDOF 10
REMARK  Name = ../refined-set-2016/2evl/2evl_pocket.pdb
REMARK  247 active torsions:
REMARK  status: ('A' for Active; 'I' for Inactive)
REMARK    1  A    between atoms: _1  and  _3
REMARK    2  A    between atoms: _3  and  _4
REMARK    3  A    between atoms: _3  and  _6
REMARK    4  A    between atoms: _6  and  _7
REMARK    5  A    between atoms: _13  and  _15
REMARK    6  A    between atoms: _15  and  _16
REMARK    7  A    between atoms: _15  and  _18
REMARK    8  A    between atoms: _18  and  _19
REMARK    9  A    between atoms: _22  and  _24
REMARK   10  A    between atoms: _24  and  _25
REMARK   11  A    between atoms: _24  and  _27
REMARK   12  A    between atoms: _30  and  _32
REMARK   13  A    between atoms: _32  and  _33
REMARK   14  A    between atoms: _32  and  _35
REMARK   15  A    between atoms: _35  and  _36
REMARK   16  A    between atoms: _42  and  _44
REMARK   17  A    between atoms: _44  and  _45
REMARK   18  A    between atoms: _44  and  _47
REMARK   19  A    between atoms: _47  and  _48
REMARK   20  A    between atoms: _52  and  _53
REMARK   21  A    between atoms: _58  and  _60
REMARK   22  A    between atoms: _60  and  _61
REMARK   23  A    between atoms: _60  and  _63
REMARK   24  A    between atoms: _63  and  _64
REMARK   25  A    between atoms: _67  and  _69
REMARK   26  A    between atoms: _69  and  _70
REMARK   27  A    between atoms: _69  and  _72
REMARK   28  A    between atoms: _72  and  _73
REMARK   29  A    between atoms: _73  and  _74
REMARK   30  A    between atoms: _74  and  _75
REMARK   31  A    between atoms: _75  and  _76
REMARK   32  A    between atoms: _80  and  _82
REMARK   33  A    between atoms: _82  and  _83
REMARK   34  A    between atoms: _86  and  _88
REMARK   35  A    between atoms: _88  and  _89
REMARK   36  A    between atoms: _88  and  _91
REMARK   37  A    between atoms: _91  and  _92
REMARK   38  A    between atoms: _95  and  _97
REMARK   39  A    between atoms: _97  and  _98
REMARK   40  A    between atoms: _97  and  _100
REMARK   41  A    between atoms: _100  and  _101
REMARK   42  A    between atoms: _104  and  _106
REMARK   43  A    between atoms: _106  and  _107
REMARK   44  A    between atoms: _109  and  _111
REMARK   45  A    between atoms: _111  and  _112
REMARK   46  A    between atoms: _111  and  _114
REMARK   47  A    between atoms: _114  and  _115
REMARK   48  A    between atoms: _120  and  _122
REMARK   49  A    between atoms: _122  and  _123
REMARK   50  A    between atoms: _122  and  _125
REMARK   51  A    between atoms: _125  and  _126
REMARK   52  A    between atoms: _129  and  _131
REMARK   53  A    between atoms: _131  and  _132
REMARK   54  A    between atoms: _131  and  _134
REMARK   55  A    between atoms: _134  and  _135
REMARK   56  A    between atoms: _135  and  _136
REMARK   57  A    between atoms: _136  and  _137
REMARK   58  A    between atoms: _137  and  _138
REMARK   59  A    between atoms: _142  and  _144
REMARK   60  A    between atoms: _144  and  _145
REMARK   61  A    between atoms: _144  and  _147
REMARK   62  A    between atoms: _147  and  _148
REMARK   63  A    between atoms: _151  and  _153
REMARK   64  A    between atoms: _153  and  _154
REMARK   65  A    between atoms: _153  and  _156
REMARK   66  A    between atoms: _156  and  _157
REMARK   67  A    between atoms: _157  and  _158
REMARK   68  A    between atoms: _158  and  _159
REMARK   69  A    between atoms: _159  and  _160
REMARK   70  A    between atoms: _164  and  _166
REMARK   71  A    between atoms: _166  and  _167
REMARK   72  A    between atoms: _169  and  _171
REMARK   73  A    between atoms: _171  and  _172
REMARK   74  A    between atoms: _171  and  _174
REMARK   75  A    between atoms: _174  and  _175
REMARK   76  A    between atoms: _178  and  _180
REMARK   77  A    between atoms: _180  and  _181
REMARK   78  A    between atoms: _184  and  _186
REMARK   79  A    between atoms: _186  and  _187
REMARK   80  A    between atoms: _186  and  _189
REMARK   81  A    between atoms: _189  and  _190
REMARK   82  A    between atoms: _193  and  _195
REMARK   83  A    between atoms: _195  and  _196
REMARK   84  A    between atoms: _195  and  _198
REMARK   85  A    between atoms: _198  and  _199
REMARK   86  A    between atoms: _199  and  _200
REMARK   87  A    between atoms: _202  and  _204
REMARK   88  A    between atoms: _204  and  _205
REMARK   89  A    between atoms: _204  and  _207
REMARK   90  A    between atoms: _207  and  _208
REMARK   91  A    between atoms: _218  and  _220
REMARK   92  A    between atoms: _220  and  _221
REMARK   93  A    between atoms: _220  and  _223
REMARK   94  A    between atoms: _223  and  _224
REMARK   95  A    between atoms: _227  and  _229
REMARK   96  A    between atoms: _229  and  _230
REMARK   97  A    between atoms: _229  and  _232
REMARK   98  A    between atoms: _232  and  _233
REMARK   99  A    between atoms: _233  and  _234
REMARK  100  A    between atoms: _234  and  _235
REMARK  101  A    between atoms: _235  and  _236
REMARK  102  A    between atoms: _240  and  _242
REMARK  103  A    between atoms: _242  and  _243
REMARK  104  A    between atoms: _242  and  _245
REMARK  105  A    between atoms: _245  and  _246
REMARK  106  A    between atoms: _246  and  _247
REMARK  107  A    between atoms: _247  and  _248
REMARK  108  A    between atoms: _257  and  _259
REMARK  109  A    between atoms: _259  and  _260
REMARK  110  A    between atoms: _262  and  _264
REMARK  111  A    between atoms: _264  and  _265
REMARK  112  A    between atoms: _264  and  _267
REMARK  113  A    between atoms: _267  and  _268
REMARK  114  A    between atoms: _271  and  _273
REMARK  115  A    between atoms: _273  and  _274
REMARK  116  A    between atoms: _273  and  _276
REMARK  117  A    between atoms: _276  and  _277
REMARK  118  A    between atoms: _277  and  _278
REMARK  119  A    between atoms: _278  and  _279
REMARK  120  A    between atoms: _288  and  _290
REMARK  121  A    between atoms: _290  and  _291
REMARK  122  A    between atoms: _290  and  _293
REMARK  123  A    between atoms: _293  and  _294
REMARK  124  A    between atoms: _300  and  _302
REMARK  125  A    between atoms: _302  and  _303
REMARK  126  A    between atoms: _302  and  _305
REMARK  127  A    between atoms: _305  and  _306
REMARK  128  A    between atoms: _309  and  _311
REMARK  129  A    between atoms: _311  and  _312
REMARK  130  A    between atoms: _311  and  _314
REMARK  131  A    between atoms: _314  and  _315
REMARK  132  A    between atoms: _321  and  _323
REMARK  133  A    between atoms: _323  and  _324
REMARK  134  A    between atoms: _323  and  _326
REMARK  135  A    between atoms: _326  and  _327
REMARK  136  A    between atoms: _330  and  _332
REMARK  137  A    between atoms: _332  and  _333
REMARK  138  A    between atoms: _332  and  _335
REMARK  139  A    between atoms: _335  and  _336
REMARK  140  A    between atoms: _339  and  _341
REMARK  141  A    between atoms: _341  and  _342
REMARK  142  A    between atoms: _341  and  _344
REMARK  143  A    between atoms: _344  and  _345
REMARK  144  A    between atoms: _348  and  _350
REMARK  145  A    between atoms: _350  and  _351
REMARK  146  A    between atoms: _350  and  _353
REMARK  147  A    between atoms: _353  and  _354
REMARK  148  A    between atoms: _354  and  _355
REMARK  149  A    between atoms: _355  and  _356
REMARK  150  A    between atoms: _365  and  _367
REMARK  151  A    between atoms: _367  and  _368
REMARK  152  A    between atoms: _367  and  _370
REMARK  153  A    between atoms: _370  and  _371
REMARK  154  A    between atoms: _376  and  _378
REMARK  155  A    between atoms: _378  and  _379
REMARK  156  A    between atoms: _382  and  _384
REMARK  157  A    between atoms: _384  and  _385
REMARK  158  A    between atoms: _384  and  _387
REMARK  159  A    between atoms: _387  and  _388
REMARK  160  A    between atoms: _391  and  _393
REMARK  161  A    between atoms: _393  and  _394
REMARK  162  A    between atoms: _397  and  _399
REMARK  163  A    between atoms: _399  and  _400
REMARK  164  A    between atoms: _399  and  _402
REMARK  165  A    between atoms: _402  and  _403
REMARK  166  A    between atoms: _408  and  _409
REMARK  167  A    between atoms: _411  and  _413
REMARK  168  A    between atoms: _413  and  _414
REMARK  169  A    between atoms: _417  and  _419
REMARK  170  A    between atoms: _419  and  _420
REMARK  171  A    between atoms: _419  and  _422
REMARK  172  A    between atoms: _422  and  _423
REMARK  173  A    between atoms: _426  and  _428
REMARK  174  A    between atoms: _428  and  _429
REMARK  175  A    between atoms: _428  and  _431
REMARK  176  A    between atoms: _431  and  _432
REMARK  177  A    between atoms: _432  and  _433
REMARK  178  A    between atoms: _433  and  _434
REMARK  179  A    between atoms: _434  and  _435
REMARK  180  A    between atoms: _439  and  _441
REMARK  181  A    between atoms: _441  and  _442
REMARK  182  A    between atoms: _441  and  _444
REMARK  183  A    between atoms: _444  and  _445
REMARK  184  A    between atoms: _450  and  _451
REMARK  185  A    between atoms: _453  and  _455
REMARK  186  A    between atoms: _455  and  _456
REMARK  187  A    between atoms: _455  and  _458
REMARK  188  A    between atoms: _458  and  _459
REMARK  189  A    between atoms: _464  and  _466
REMARK  190  A    between atoms: _466  and  _467
REMARK  191  A    between atoms: _469  and  _471
REMARK  192  A    between atoms: _471  and  _472
REMARK  193  A    between atoms: _471  and  _474
REMARK  194  A    between atoms: _474  and  _475
REMARK  195  A    between atoms: _478  and  _480
REMARK  196  A    between atoms: _480  and  _481
REMARK  197  A    between atoms: _480  and  _483
REMARK  198  A    between atoms: _486  and  _488
REMARK  199  A    between atoms: _488  and  _489
REMARK  200  A    between atoms: _488  and  _491
REMARK  201  A    between atoms: _491  and  _492
REMARK  202  A    between atoms: _495  and  _497
REMARK  203  A    between atoms: _497  and  _498
REMARK  204  A    between atoms: _497  and  _500
REMARK  205  A    between atoms: _500  and  _501
REMARK  206  A    between atoms: _507  and  _509
REMARK  207  A    between atoms: _509  and  _510
REMARK  208  A    between atoms: _509  and  _512
REMARK  209  A    between atoms: _512  and  _513
REMARK  210  A    between atoms: _513  and  _514
REMARK  211  A    between atoms: _519  and  _521
REMARK  212  A    between atoms: _521  and  _522
REMARK  213  A    between atoms: _525  and  _527
REMARK  214  A    between atoms: _527  and  _528
REMARK  215  A    between atoms: _531  and  _533
REMARK  216  A    between atoms: _533  and  _534
REMARK  217  A    between atoms: _533  and  _536
REMARK  218  A    between atoms: _536  and  _537
REMARK  219  A    between atoms: _540  and  _542
REMARK  220  A    between atoms: _542  and  _543
REMARK  221  A    between atoms: _542  and  _545
REMARK  222  A    between atoms: _545  and  _546
REMARK  223  A    between atoms: _551  and  _552
REMARK  224  A    between atoms: _554  and  _556
REMARK  225  A    between atoms: _556  and  _557
REMARK  226  A    between atoms: _560  and  _562
REMARK  227  A    between atoms: _562  and  _563
REMARK  228  A    between atoms: _567  and  _568
REMARK  229  A    between atoms: _573  and  _575
REMARK  230  A    between atoms: _575  and  _576
REMARK  231  A    between atoms: _575  and  _578
REMARK  232  A    between atoms: _578  and  _579
REMARK  233  A    between atoms: _585  and  _587
REMARK  234  A    between atoms: _587  and  _588
REMARK  235  A    between atoms: _587  and  _590
REMARK  236  A    between atoms: _590  and  _591
REMARK  237  A    between atoms: _596  and  _597
REMARK  238  A    between atoms: _599  and  _601
REMARK  239  A    between atoms: _601  and  _602
REMARK  240  A    between atoms: _601  and  _604
REMARK  241  A    between atoms: _604  and  _605
REMARK  242  A    between atoms: _605  and  _606
REMARK  243  A    between atoms: _606  and  _607
REMARK  244  A    between atoms: _607  and  _608
REMARK  245  A    between atoms: _612  and  _614
REMARK  246  A    between atoms: _614  and  _615
REMARK  247  A    between atoms: _614  and  _617
REMARK                            x       y       z     vdW  Elec       q    Type
REMARK                         _______ _______ _______ _____ _____    ______ ____
ROOT
ATOM      1  CA  LYS A   1      20.355  11.292  17.761  0.00  0.00    +0.145 C 
ENDROOT
BRANCH   1   2
ATOM      2  C   LYS A   1      20.004  11.877  16.389  0.00  0.00    +0.238 C 
ATOM      3  O   LYS A   1      20.716  12.736  15.864  0.00  0.00    -0.274 OA
ATOM      4  N   ILE A   2      18.917  11.406  15.786  0.00  0.00    -0.298 N 
ATOM      5  H   ILE A   2      18.359  10.653  16.237  0.00  0.00    +0.150 HD
BRANCH   4   6
ATOM      6  CA  ILE A   2      18.503  11.946  14.485  0.00  0.00    +0.137 C 
BRANCH   6   7
ATOM      7  C   ILE A   2      17.997  13.380  14.655  0.00  0.00    +0.227 C 
ATOM      8  O   ILE A   2      18.372  14.293  13.882  0.00  0.00    -0.286 OA
ENDBRANCH   6   7
BRANCH   6   9
ATOM      9  CB  ILE A   2      17.465  11.070  13.789  0.00  0.00    +0.026 C 
ATOM     10  CG2 ILE A   2      17.040  11.727  12.446  0.00  0.00    +0.002 C 
BRANCH   9  11
ATOM     11  CG1 ILE A   2      18.029   9.664  13.576  0.00  0.00    +0.002 C 
ATOM     12  CD1 ILE A   2      16.945   8.548  13.506  0.00  0.00    +0.000 C 
ENDBRANCH   9  11
ENDBRANCH   6   9
ENDBRANCH   4   6
ENDBRANCH   1   2
BRANCH   1  13
ATOM     13  N   LYS A   1      19.195  11.097  18.648  0.00  0.00    -0.238 NA
ATOM     14  H   LYS A   1      18.990  10.138  18.994  0.00  0.00    +0.142 HD
ENDBRANCH   1  13
BRANCH   1  15
ATOM     15  CB  LYS A   1      21.092   9.952  17.532  0.00  0.00    +0.026 C 
BRANCH  15  16
ATOM     16  CG  LYS A   1      22.004   9.531  18.668  0.00  0.00    -0.000 C 
BRANCH  16  17
ATOM     17  CD  LYS A   1      22.581   8.136  18.429  0.00  0.00    -0.024 C 
BRANCH  17  18
ATOM     18  CE  LYS A   1      23.469   7.677  19.573  0.00  0.00    -0.086 C 
BRANCH  18  19
ATOM     19  NZ  LYS A   1      23.287   6.217  19.869  0.00  0.00    +0.380 N 
ATOM     20  HZ1 LYS A   1      23.910   5.944  20.655  0.00  0.00    -0.089 HD
ATOM     21  HZ2 LYS A   1      22.297   6.039  20.132  0.00  0.00    -0.089 HD
ATOM     22  HZ3 LYS A   1      23.528   5.661  19.024  0.00  0.00    -0.089 HD
ENDBRANCH  18  19
ENDBRANCH  17  18
ENDBRANCH  16  17
ENDBRANCH  15  16
ENDBRANCH   1  15
TORSDOF 11
REMARK  Name = ../refined-set-2016/2evl/2evl_pocket.pdb
REMARK  247 active torsions:
REMARK  status: ('A' for Active; 'I' for Inactive)
REMARK    1  A    between atoms: _1  and  _3
REMARK    2  A    between atoms: _3  and  _4
REMARK    3  A    between atoms: _3  and  _6
REMARK    4  A    between atoms: _6  and  _7
REMARK    5  A    between atoms: _13  and  _15
REMARK    6  A    between atoms: _15  and  _16
REMARK    7  A    between atoms: _15  and  _18
REMARK    8  A    between atoms: _18  and  _19
REMARK    9  A    between atoms: _22  and  _24
REMARK   10  A    between atoms: _24  and  _25
REMARK   11  A    between atoms: _24  and  _27
REMARK   12  A    between atoms: _30  and  _32
REMARK   13  A    between atoms: _32  and  _33
REMARK   14  A    between atoms: _32  and  _35
REMARK   15  A    between atoms: _35  and  _36
REMARK   16  A    between atoms: _42  and  _44
REMARK   17  A    between atoms: _44  and  _45
REMARK   18  A    between atoms: _44  and  _47
REMARK   19  A    between atoms: _47  and  _48
REMARK   20  A    between atoms: _52  and  _53
REMARK   21  A    between atoms: _58  and  _60
REMARK   22  A    between atoms: _60  and  _61
REMARK   23  A    between atoms: _60  and  _63
REMARK   24  A    between atoms: _63  and  _64
REMARK   25  A    between atoms: _67  and  _69
REMARK   26  A    between atoms: _69  and  _70
REMARK   27  A    between atoms: _69  and  _72
REMARK   28  A    between atoms: _72  and  _73
REMARK   29  A    between atoms: _73  and  _74
REMARK   30  A    between atoms: _74  and  _75
REMARK   31  A    between atoms: _75  and  _76
REMARK   32  A    between atoms: _80  and  _82
REMARK   33  A    between atoms: _82  and  _83
REMARK   34  A    between atoms: _86  and  _88
REMARK   35  A    between atoms: _88  and  _89
REMARK   36  A    between atoms: _88  and  _91
REMARK   37  A    between atoms: _91  and  _92
REMARK   38  A    between atoms: _95  and  _97
REMARK   39  A    between atoms: _97  and  _98
REMARK   40  A    between atoms: _97  and  _100
REMARK   41  A    between atoms: _100  and  _101
REMARK   42  A    between atoms: _104  and  _106
REMARK   43  A    between atoms: _106  and  _107
REMARK   44  A    between atoms: _109  and  _111
REMARK   45  A    between atoms: _111  and  _112
REMARK   46  A    between atoms: _111  and  _114
REMARK   47  A    between atoms: _114  and  _115
REMARK   48  A    between atoms: _120  and  _122
REMARK   49  A    between atoms: _122  and  _123
REMARK   50  A    between atoms: _122  and  _125
REMARK   51  A    between atoms: _125  and  _126
REMARK   52  A    between atoms: _129  and  _131
REMARK   53  A    between atoms: _131  and  _132
REMARK   54  A    between atoms: _131  and  _134
REMARK   55  A    between atoms: _134  and  _135
REMARK   56  A    between atoms: _135  and  _136
REMARK   57  A    between atoms: _136  and  _137
REMARK   58  A    between atoms: _137  and  _138
REMARK   59  A    between atoms: _142  and  _144
REMARK   60  A    between atoms: _144  and  _145
REMARK   61  A    between atoms: _144  and  _147
REMARK   62  A    between atoms: _147  and  _148
REMARK   63  A    between atoms: _151  and  _153
REMARK   64  A    between atoms: _153  and  _154
REMARK   65  A    between atoms: _153  and  _156
REMARK   66  A    between atoms: _156  and  _157
REMARK   67  A    between atoms: _157  and  _158
REMARK   68  A    between atoms: _158  and  _159
REMARK   69  A    between atoms: _159  and  _160
REMARK   70  A    between atoms: _164  and  _166
REMARK   71  A    between atoms: _166  and  _167
REMARK   72  A    between atoms: _169  and  _171
REMARK   73  A    between atoms: _171  and  _172
REMARK   74  A    between atoms: _171  and  _174
REMARK   75  A    between atoms: _174  and  _175
REMARK   76  A    between atoms: _178  and  _180
REMARK   77  A    between atoms: _180  and  _181
REMARK   78  A    between atoms: _184  and  _186
REMARK   79  A    between atoms: _186  and  _187
REMARK   80  A    between atoms: _186  and  _189
REMARK   81  A    between atoms: _189  and  _190
REMARK   82  A    between atoms: _193  and  _195
REMARK   83  A    between atoms: _195  and  _196
REMARK   84  A    between atoms: _195  and  _198
REMARK   85  A    between atoms: _198  and  _199
REMARK   86  A    between atoms: _199  and  _200
REMARK   87  A    between atoms: _202  and  _204
REMARK   88  A    between atoms: _204  and  _205
REMARK   89  A    between atoms: _204  and  _207
REMARK   90  A    between atoms: _207  and  _208
REMARK   91  A    between atoms: _218  and  _220
REMARK   92  A    between atoms: _220  and  _221
REMARK   93  A    between atoms: _220  and  _223
REMARK   94  A    between atoms: _223  and  _224
REMARK   95  A    between atoms: _227  and  _229
REMARK   96  A    between atoms: _229  and  _230
REMARK   97  A    between atoms: _229  and  _232
REMARK   98  A    between atoms: _232  and  _233
REMARK   99  A    between atoms: _233  and  _234
REMARK  100  A    between atoms: _234  and  _235
REMARK  101  A    between atoms: _235  and  _236
REMARK  102  A    between atoms: _240  and  _242
REMARK  103  A    between atoms: _242  and  _243
REMARK  104  A    between atoms: _242  and  _245
REMARK  105  A    between atoms: _245  and  _246
REMARK  106  A    between atoms: _246  and  _247
REMARK  107  A    between atoms: _247  and  _248
REMARK  108  A    between atoms: _257  and  _259
REMARK  109  A    between atoms: _259  and  _260
REMARK  110  A    between atoms: _262  and  _264
REMARK  111  A    between atoms: _264  and  _265
REMARK  112  A    between atoms: _264  and  _267
REMARK  113  A    between atoms: _267  and  _268
REMARK  114  A    between atoms: _271  and  _273
REMARK  115  A    between atoms: _273  and  _274
REMARK  116  A    between atoms: _273  and  _276
REMARK  117  A    between atoms: _276  and  _277
REMARK  118  A    between atoms: _277  and  _278
REMARK  119  A    between atoms: _278  and  _279
REMARK  120  A    between atoms: _288  and  _290
REMARK  121  A    between atoms: _290  and  _291
REMARK  122  A    between atoms: _290  and  _293
REMARK  123  A    between atoms: _293  and  _294
REMARK  124  A    between atoms: _300  and  _302
REMARK  125  A    between atoms: _302  and  _303
REMARK  126  A    between atoms: _302  and  _305
REMARK  127  A    between atoms: _305  and  _306
REMARK  128  A    between atoms: _309  and  _311
REMARK  129  A    between atoms: _311  and  _312
REMARK  130  A    between atoms: _311  and  _314
REMARK  131  A    between atoms: _314  and  _315
REMARK  132  A    between atoms: _321  and  _323
REMARK  133  A    between atoms: _323  and  _324
REMARK  134  A    between atoms: _323  and  _326
REMARK  135  A    between atoms: _326  and  _327
REMARK  136  A    between atoms: _330  and  _332
REMARK  137  A    between atoms: _332  and  _333
REMARK  138  A    between atoms: _332  and  _335
REMARK  139  A    between atoms: _335  and  _336
REMARK  140  A    between atoms: _339  and  _341
REMARK  141  A    between atoms: _341  and  _342
REMARK  142  A    between atoms: _341  and  _344
REMARK  143  A    between atoms: _344  and  _345
REMARK  144  A    between atoms: _348  and  _350
REMARK  145  A    between atoms: _350  and  _351
REMARK  146  A    between atoms: _350  and  _353
REMARK  147  A    between atoms: _353  and  _354
REMARK  148  A    between atoms: _354  and  _355
REMARK  149  A    between atoms: _355  and  _356
REMARK  150  A    between atoms: _365  and  _367
REMARK  151  A    between atoms: _367  and  _368
REMARK  152  A    between atoms: _367  and  _370
REMARK  153  A    between atoms: _370  and  _371
REMARK  154  A    between atoms: _376  and  _378
REMARK  155  A    between atoms: _378  and  _379
REMARK  156  A    between atoms: _382  and  _384
REMARK  157  A    between atoms: _384  and  _385
REMARK  158  A    between atoms: _384  and  _387
REMARK  159  A    between atoms: _387  and  _388
REMARK  160  A    between atoms: _391  and  _393
REMARK  161  A    between atoms: _393  and  _394
REMARK  162  A    between atoms: _397  and  _399
REMARK  163  A    between atoms: _399  and  _400
REMARK  164  A    between atoms: _399  and  _402
REMARK  165  A    between atoms: _402  and  _403
REMARK  166  A    between atoms: _408  and  _409
REMARK  167  A    between atoms: _411  and  _413
REMARK  168  A    between atoms: _413  and  _414
REMARK  169  A    between atoms: _417  and  _419
REMARK  170  A    between atoms: _419  and  _420
REMARK  171  A    between atoms: _419  and  _422
REMARK  172  A    between atoms: _422  and  _423
REMARK  173  A    between atoms: _426  and  _428
REMARK  174  A    between atoms: _428  and  _429
REMARK  175  A    between atoms: _428  and  _431
REMARK  176  A    between atoms: _431  and  _432
REMARK  177  A    between atoms: _432  and  _433
REMARK  178  A    between atoms: _433  and  _434
REMARK  179  A    between atoms: _434  and  _435
REMARK  180  A    between atoms: _439  and  _441
REMARK  181  A    between atoms: _441  and  _442
REMARK  182  A    between atoms: _441  and  _444
REMARK  183  A    between atoms: _444  and  _445
REMARK  184  A    between atoms: _450  and  _451
REMARK  185  A    between atoms: _453  and  _455
REMARK  186  A    between atoms: _455  and  _456
REMARK  187  A    between atoms: _455  and  _458
REMARK  188  A    between atoms: _458  and  _459
REMARK  189  A    between atoms: _464  and  _466
REMARK  190  A    between atoms: _466  and  _467
REMARK  191  A    between atoms: _469  and  _471
REMARK  192  A    between atoms: _471  and  _472
REMARK  193  A    between atoms: _471  and  _474
REMARK  194  A    between atoms: _474  and  _475
REMARK  195  A    between atoms: _478  and  _480
REMARK  196  A    between atoms: _480  and  _481
REMARK  197  A    between atoms: _480  and  _483
REMARK  198  A    between atoms: _486  and  _488
REMARK  199  A    between atoms: _488  and  _489
REMARK  200  A    between atoms: _488  and  _491
REMARK  201  A    between atoms: _491  and  _492
REMARK  202  A    between atoms: _495  and  _497
REMARK  203  A    between atoms: _497  and  _498
REMARK  204  A    between atoms: _497  and  _500
REMARK  205  A    between atoms: _500  and  _501
REMARK  206  A    between atoms: _507  and  _509
REMARK  207  A    between atoms: _509  and  _510
REMARK  208  A    between atoms: _509  and  _512
REMARK  209  A    between atoms: _512  and  _513
REMARK  210  A    between atoms: _513  and  _514
REMARK  211  A    between atoms: _519  and  _521
REMARK  212  A    between atoms: _521  and  _522
REMARK  213  A    between atoms: _525  and  _527
REMARK  214  A    between atoms: _527  and  _528
REMARK  215  A    between atoms: _531  and  _533
REMARK  216  A    between atoms: _533  and  _534
REMARK  217  A    between atoms: _533  and  _536
REMARK  218  A    between atoms: _536  and  _537
REMARK  219  A    between atoms: _540  and  _542
REMARK  220  A    between atoms: _542  and  _543
REMARK  221  A    between atoms: _542  and  _545
REMARK  222  A    between atoms: _545  and  _546
REMARK  223  A    between atoms: _551  and  _552
REMARK  224  A    between atoms: _554  and  _556
REMARK  225  A    between atoms: _556  and  _557
REMARK  226  A    between atoms: _560  and  _562
REMARK  227  A    between atoms: _562  and  _563
REMARK  228  A    between atoms: _567  and  _568
REMARK  229  A    between atoms: _573  and  _575
REMARK  230  A    between atoms: _575  and  _576
REMARK  231  A    between atoms: _575  and  _578
REMARK  232  A    between atoms: _578  and  _579
REMARK  233  A    between atoms: _585  and  _587
REMARK  234  A    between atoms: _587  and  _588
REMARK  235  A    between atoms: _587  and  _590
REMARK  236  A    between atoms: _590  and  _591
REMARK  237  A    between atoms: _596  and  _597
REMARK  238  A    between atoms: _599  and  _601
REMARK  239  A    between atoms: _601  and  _602
REMARK  240  A    between atoms: _601  and  _604
REMARK  241  A    between atoms: _604  and  _605
REMARK  242  A    between atoms: _605  and  _606
REMARK  243  A    between atoms: _606  and  _607
REMARK  244  A    between atoms: _607  and  _608
REMARK  245  A    between atoms: _612  and  _614
REMARK  246  A    between atoms: _614  and  _615
REMARK  247  A    between atoms: _614  and  _617
REMARK                            x       y       z     vdW  Elec       q    Type
REMARK                         _______ _______ _______ _____ _____    ______ ____
ROOT
ATOM      1  CG  LYS A   1      29.577   2.100  11.815  0.00  0.00    -0.000 C 
ENDROOT
BRANCH   1   2
ATOM      2  CB  LYS A   1      29.833   2.893  10.521  0.00  0.00    +0.025 C 
BRANCH   2   3
ATOM      3  CA  LYS A   1      28.795   4.002  10.292  0.00  0.00    +0.133 C 
BRANCH   3   4
ATOM      4  N   LYS A   1      28.739   4.366   8.889  0.00  0.00    -0.239 NA
ATOM      5  H   LYS A   1      29.597   4.288   8.306  0.00  0.00    +0.142 HD
ENDBRANCH   3   4
BRANCH   3   6
ATOM      6  C   LYS A   1      29.044   5.214  11.181  0.00  0.00    +0.224 C 
ATOM      7  O   LYS A   1      29.955   5.211  12.011  0.00  0.00    -0.287 OA
ENDBRANCH   3   6
ENDBRANCH   2   3
ENDBRANCH   1   2
BRANCH   1   8
ATOM      8  CD  LYS A   1      30.513   0.904  11.983  0.00  0.00    -0.024 C 
BRANCH   8   9
ATOM      9  CE  LYS A   1      30.249   0.211  13.305  0.00  0.00    -0.086 C 
BRANCH   9  10
ATOM     10  NZ  LYS A   1      31.176  -0.948  13.545  0.00  0.00    +0.380 N 
ATOM     11  HZ1 LYS A   1      30.952  -1.385  14.462  0.00  0.00    -0.089 HD
ATOM     12  HZ2 LYS A   1      32.159  -0.608  13.552  0.00  0.00    -0.089 HD
ATOM     13  HZ3 LYS A   1      31.056  -1.649  12.786  0.00  0.00    -0.089 HD
ENDBRANCH   9  10
ENDBRANCH   8   9
ENDBRANCH   1   8
TORSDOF 7
REMARK  Name = ../refined-set-2016/2evl/2evl_pocket.pdb
REMARK  247 active torsions:
REMARK  status: ('A' for Active; 'I' for Inactive)
REMARK    1  A    between atoms: _1  and  _3
REMARK    2  A    between atoms: _3  and  _4
REMARK    3  A    between atoms: _3  and  _6
REMARK    4  A    between atoms: _6  and  _7
REMARK    5  A    between atoms: _13  and  _15
REMARK    6  A    between atoms: _15  and  _16
REMARK    7  A    between atoms: _15  and  _18
REMARK    8  A    between atoms: _18  and  _19
REMARK    9  A    between atoms: _22  and  _24
REMARK   10  A    between atoms: _24  and  _25
REMARK   11  A    between atoms: _24  and  _27
REMARK   12  A    between atoms: _30  and  _32
REMARK   13  A    between atoms: _32  and  _33
REMARK   14  A    between atoms: _32  and  _35
REMARK   15  A    between atoms: _35  and  _36
REMARK   16  A    between atoms: _42  and  _44
REMARK   17  A    between atoms: _44  and  _45
REMARK   18  A    between atoms: _44  and  _47
REMARK   19  A    between atoms: _47  and  _48
REMARK   20  A    between atoms: _52  and  _53
REMARK   21  A    between atoms: _58  and  _60
REMARK   22  A    between atoms: _60  and  _61
REMARK   23  A    between atoms: _60  and  _63
REMARK   24  A    between atoms: _63  and  _64
REMARK   25  A    between atoms: _67  and  _69
REMARK   26  A    between atoms: _69  and  _70
REMARK   27  A    between atoms: _69  and  _72
REMARK   28  A    between atoms: _72  and  _73
REMARK   29  A    between atoms: _73  and  _74
REMARK   30  A    between atoms: _74  and  _75
REMARK   31  A    between atoms: _75  and  _76
REMARK   32  A    between atoms: _80  and  _82
REMARK   33  A    between atoms: _82  and  _83
REMARK   34  A    between atoms: _86  and  _88
REMARK   35  A    between atoms: _88  and  _89
REMARK   36  A    between atoms: _88  and  _91
REMARK   37  A    between atoms: _91  and  _92
REMARK   38  A    between atoms: _95  and  _97
REMARK   39  A    between atoms: _97  and  _98
REMARK   40  A    between atoms: _97  and  _100
REMARK   41  A    between atoms: _100  and  _101
REMARK   42  A    between atoms: _104  and  _106
REMARK   43  A    between atoms: _106  and  _107
REMARK   44  A    between atoms: _109  and  _111
REMARK   45  A    between atoms: _111  and  _112
REMARK   46  A    between atoms: _111  and  _114
REMARK   47  A    between atoms: _114  and  _115
REMARK   48  A    between atoms: _120  and  _122
REMARK   49  A    between atoms: _122  and  _123
REMARK   50  A    between atoms: _122  and  _125
REMARK   51  A    between atoms: _125  and  _126
REMARK   52  A    between atoms: _129  and  _131
REMARK   53  A    between atoms: _131  and  _132
REMARK   54  A    between atoms: _131  and  _134
REMARK   55  A    between atoms: _134  and  _135
REMARK   56  A    between atoms: _135  and  _136
REMARK   57  A    between atoms: _136  and  _137
REMARK   58  A    between atoms: _137  and  _138
REMARK   59  A    between atoms: _142  and  _144
REMARK   60  A    between atoms: _144  and  _145
REMARK   61  A    between atoms: _144  and  _147
REMARK   62  A    between atoms: _147  and  _148
REMARK   63  A    between atoms: _151  and  _153
REMARK   64  A    between atoms: _153  and  _154
REMARK   65  A    between atoms: _153  and  _156
REMARK   66  A    between atoms: _156  and  _157
REMARK   67  A    between atoms: _157  and  _158
REMARK   68  A    between atoms: _158  and  _159
REMARK   69  A    between atoms: _159  and  _160
REMARK   70  A    between atoms: _164  and  _166
REMARK   71  A    between atoms: _166  and  _167
REMARK   72  A    between atoms: _169  and  _171
REMARK   73  A    between atoms: _171  and  _172
REMARK   74  A    between atoms: _171  and  _174
REMARK   75  A    between atoms: _174  and  _175
REMARK   76  A    between atoms: _178  and  _180
REMARK   77  A    between atoms: _180  and  _181
REMARK   78  A    between atoms: _184  and  _186
REMARK   79  A    between atoms: _186  and  _187
REMARK   80  A    between atoms: _186  and  _189
REMARK   81  A    between atoms: _189  and  _190
REMARK   82  A    between atoms: _193  and  _195
REMARK   83  A    between atoms: _195  and  _196
REMARK   84  A    between atoms: _195  and  _198
REMARK   85  A    between atoms: _198  and  _199
REMARK   86  A    between atoms: _199  and  _200
REMARK   87  A    between atoms: _202  and  _204
REMARK   88  A    between atoms: _204  and  _205
REMARK   89  A    between atoms: _204  and  _207
REMARK   90  A    between atoms: _207  and  _208
REMARK   91  A    between atoms: _218  and  _220
REMARK   92  A    between atoms: _220  and  _221
REMARK   93  A    between atoms: _220  and  _223
REMARK   94  A    between atoms: _223  and  _224
REMARK   95  A    between atoms: _227  and  _229
REMARK   96  A    between atoms: _229  and  _230
REMARK   97  A    between atoms: _229  and  _232
REMARK   98  A    between atoms: _232  and  _233
REMARK   99  A    between atoms: _233  and  _234
REMARK  100  A    between atoms: _234  and  _235
REMARK  101  A    between atoms: _235  and  _236
REMARK  102  A    between atoms: _240  and  _242
REMARK  103  A    between atoms: _242  and  _243
REMARK  104  A    between atoms: _242  and  _245
REMARK  105  A    between atoms: _245  and  _246
REMARK  106  A    between atoms: _246  and  _247
REMARK  107  A    between atoms: _247  and  _248
REMARK  108  A    between atoms: _257  and  _259
REMARK  109  A    between atoms: _259  and  _260
REMARK  110  A    between atoms: _262  and  _264
REMARK  111  A    between atoms: _264  and  _265
REMARK  112  A    between atoms: _264  and  _267
REMARK  113  A    between atoms: _267  and  _268
REMARK  114  A    between atoms: _271  and  _273
REMARK  115  A    between atoms: _273  and  _274
REMARK  116  A    between atoms: _273  and  _276
REMARK  117  A    between atoms: _276  and  _277
REMARK  118  A    between atoms: _277  and  _278
REMARK  119  A    between atoms: _278  and  _279
REMARK  120  A    between atoms: _288  and  _290
REMARK  121  A    between atoms: _290  and  _291
REMARK  122  A    between atoms: _290  and  _293
REMARK  123  A    between atoms: _293  and  _294
REMARK  124  A    between atoms: _300  and  _302
REMARK  125  A    between atoms: _302  and  _303
REMARK  126  A    between atoms: _302  and  _305
REMARK  127  A    between atoms: _305  and  _306
REMARK  128  A    between atoms: _309  and  _311
REMARK  129  A    between atoms: _311  and  _312
REMARK  130  A    between atoms: _311  and  _314
REMARK  131  A    between atoms: _314  and  _315
REMARK  132  A    between atoms: _321  and  _323
REMARK  133  A    between atoms: _323  and  _324
REMARK  134  A    between atoms: _323  and  _326
REMARK  135  A    between atoms: _326  and  _327
REMARK  136  A    between atoms: _330  and  _332
REMARK  137  A    between atoms: _332  and  _333
REMARK  138  A    between atoms: _332  and  _335
REMARK  139  A    between atoms: _335  and  _336
REMARK  140  A    between atoms: _339  and  _341
REMARK  141  A    between atoms: _341  and  _342
REMARK  142  A    between atoms: _341  and  _344
REMARK  143  A    between atoms: _344  and  _345
REMARK  144  A    between atoms: _348  and  _350
REMARK  145  A    between atoms: _350  and  _351
REMARK  146  A    between atoms: _350  and  _353
REMARK  147  A    between atoms: _353  and  _354
REMARK  148  A    between atoms: _354  and  _355
REMARK  149  A    between atoms: _355  and  _356
REMARK  150  A    between atoms: _365  and  _367
REMARK  151  A    between atoms: _367  and  _368
REMARK  152  A    between atoms: _367  and  _370
REMARK  153  A    between atoms: _370  and  _371
REMARK  154  A    between atoms: _376  and  _378
REMARK  155  A    between atoms: _378  and  _379
REMARK  156  A    between atoms: _382  and  _384
REMARK  157  A    between atoms: _384  and  _385
REMARK  158  A    between atoms: _384  and  _387
REMARK  159  A    between atoms: _387  and  _388
REMARK  160  A    between atoms: _391  and  _393
REMARK  161  A    between atoms: _393  and  _394
REMARK  162  A    between atoms: _397  and  _399
REMARK  163  A    between atoms: _399  and  _400
REMARK  164  A    between atoms: _399  and  _402
REMARK  165  A    between atoms: _402  and  _403
REMARK  166  A    between atoms: _408  and  _409
REMARK  167  A    between atoms: _411  and  _413
REMARK  168  A    between atoms: _413  and  _414
REMARK  169  A    between atoms: _417  and  _419
REMARK  170  A    between atoms: _419  and  _420
REMARK  171  A    between atoms: _419  and  _422
REMARK  172  A    between atoms: _422  and  _423
REMARK  173  A    between atoms: _426  and  _428
REMARK  174  A    between atoms: _428  and  _429
REMARK  175  A    between atoms: _428  and  _431
REMARK  176  A    between atoms: _431  and  _432
REMARK  177  A    between atoms: _432  and  _433
REMARK  178  A    between atoms: _433  and  _434
REMARK  179  A    between atoms: _434  and  _435
REMARK  180  A    between atoms: _439  and  _441
REMARK  181  A    between atoms: _441  and  _442
REMARK  182  A    between atoms: _441  and  _444
REMARK  183  A    between atoms: _444  and  _445
REMARK  184  A    between atoms: _450  and  _451
REMARK  185  A    between atoms: _453  and  _455
REMARK  186  A    between atoms: _455  and  _456
REMARK  187  A    between atoms: _455  and  _458
REMARK  188  A    between atoms: _458  and  _459
REMARK  189  A    between atoms: _464  and  _466
REMARK  190  A    between atoms: _466  and  _467
REMARK  191  A    between atoms: _469  and  _471
REMARK  192  A    between atoms: _471  and  _472
REMARK  193  A    between atoms: _471  and  _474
REMARK  194  A    between atoms: _474  and  _475
REMARK  195  A    between atoms: _478  and  _480
REMARK  196  A    between atoms: _480  and  _481
REMARK  197  A    between atoms: _480  and  _483
REMARK  198  A    between atoms: _486  and  _488
REMARK  199  A    between atoms: _488  and  _489
REMARK  200  A    between atoms: _488  and  _491
REMARK  201  A    between atoms: _491  and  _492
REMARK  202  A    between atoms: _495  and  _497
REMARK  203  A    between atoms: _497  and  _498
REMARK  204  A    between atoms: _497  and  _500
REMARK  205  A    between atoms: _500  and  _501
REMARK  206  A    between atoms: _507  and  _509
REMARK  207  A    between atoms: _509  and  _510
REMARK  208  A    between atoms: _509  and  _512
REMARK  209  A    between atoms: _512  and  _513
REMARK  210  A    between atoms: _513  and  _514
REMARK  211  A    between atoms: _519  and  _521
REMARK  212  A    between atoms: _521  and  _522
REMARK  213  A    between atoms: _525  and  _527
REMARK  214  A    between atoms: _527  and  _528
REMARK  215  A    between atoms: _531  and  _533
REMARK  216  A    between atoms: _533  and  _534
REMARK  217  A    between atoms: _533  and  _536
REMARK  218  A    between atoms: _536  and  _537
REMARK  219  A    between atoms: _540  and  _542
REMARK  220  A    between atoms: _542  and  _543
REMARK  221  A    between atoms: _542  and  _545
REMARK  222  A    between atoms: _545  and  _546
REMARK  223  A    between atoms: _551  and  _552
REMARK  224  A    between atoms: _554  and  _556
REMARK  225  A    between atoms: _556  and  _557
REMARK  226  A    between atoms: _560  and  _562
REMARK  227  A    between atoms: _562  and  _563
REMARK  228  A    between atoms: _567  and  _568
REMARK  229  A    between atoms: _573  and  _575
REMARK  230  A    between atoms: _575  and  _576
REMARK  231  A    between atoms: _575  and  _578
REMARK  232  A    between atoms: _578  and  _579
REMARK  233  A    between atoms: _585  and  _587
REMARK  234  A    between atoms: _587  and  _588
REMARK  235  A    between atoms: _587  and  _590
REMARK  236  A    between atoms: _590  and  _591
REMARK  237  A    between atoms: _596  and  _597
REMARK  238  A    between atoms: _599  and  _601
REMARK  239  A    between atoms: _601  and  _602
REMARK  240  A    between atoms: _601  and  _604
REMARK  241  A    between atoms: _604  and  _605
REMARK  242  A    between atoms: _605  and  _606
REMARK  243  A    between atoms: _606  and  _607
REMARK  244  A    between atoms: _607  and  _608
REMARK  245  A    between atoms: _612  and  _614
REMARK  246  A    between atoms: _614  and  _615
REMARK  247  A    between atoms: _614  and  _617
REMARK                            x       y       z     vdW  Elec       q    Type
REMARK                         _______ _______ _______ _____ _____    ______ ____
ROOT
ATOM      1  CA  GLY A   1      25.889  10.222  12.793  0.00  0.00    +0.156 C 
ENDROOT
BRANCH   1   2
ATOM      2  N   GLY A   1      26.910   9.177  12.720  0.00  0.00    -0.238 NA
ATOM      3  H   GLY A   1      27.601   9.121  13.495  0.00  0.00    +0.142 HD
ENDBRANCH   1   2
BRANCH   1   4
ATOM      4  C   GLY A   1      24.450   9.738  12.785  0.00  0.00    +0.226 C 
ATOM      5  O   GLY A   1      24.158   8.637  13.255  0.00  0.00    -0.287 OA
ENDBRANCH   1   4
TORSDOF 2
REMARK  Name = ../refined-set-2016/2evl/2evl_pocket.pdb
REMARK  247 active torsions:
REMARK  status: ('A' for Active; 'I' for Inactive)
REMARK    1  A    between atoms: _1  and  _3
REMARK    2  A    between atoms: _3  and  _4
REMARK    3  A    between atoms: _3  and  _6
REMARK    4  A    between atoms: _6  and  _7
REMARK    5  A    between atoms: _13  and  _15
REMARK    6  A    between atoms: _15  and  _16
REMARK    7  A    between atoms: _15  and  _18
REMARK    8  A    between atoms: _18  and  _19
REMARK    9  A    between atoms: _22  and  _24
REMARK   10  A    between atoms: _24  and  _25
REMARK   11  A    between atoms: _24  and  _27
REMARK   12  A    between atoms: _30  and  _32
REMARK   13  A    between atoms: _32  and  _33
REMARK   14  A    between atoms: _32  and  _35
REMARK   15  A    between atoms: _35  and  _36
REMARK   16  A    between atoms: _42  and  _44
REMARK   17  A    between atoms: _44  and  _45
REMARK   18  A    between atoms: _44  and  _47
REMARK   19  A    between atoms: _47  and  _48
REMARK   20  A    between atoms: _52  and  _53
REMARK   21  A    between atoms: _58  and  _60
REMARK   22  A    between atoms: _60  and  _61
REMARK   23  A    between atoms: _60  and  _63
REMARK   24  A    between atoms: _63  and  _64
REMARK   25  A    between atoms: _67  and  _69
REMARK   26  A    between atoms: _69  and  _70
REMARK   27  A    between atoms: _69  and  _72
REMARK   28  A    between atoms: _72  and  _73
REMARK   29  A    between atoms: _73  and  _74
REMARK   30  A    between atoms: _74  and  _75
REMARK   31  A    between atoms: _75  and  _76
REMARK   32  A    between atoms: _80  and  _82
REMARK   33  A    between atoms: _82  and  _83
REMARK   34  A    between atoms: _86  and  _88
REMARK   35  A    between atoms: _88  and  _89
REMARK   36  A    between atoms: _88  and  _91
REMARK   37  A    between atoms: _91  and  _92
REMARK   38  A    between atoms: _95  and  _97
REMARK   39  A    between atoms: _97  and  _98
REMARK   40  A    between atoms: _97  and  _100
REMARK   41  A    between atoms: _100  and  _101
REMARK   42  A    between atoms: _104  and  _106
REMARK   43  A    between atoms: _106  and  _107
REMARK   44  A    between atoms: _109  and  _111
REMARK   45  A    between atoms: _111  and  _112
REMARK   46  A    between atoms: _111  and  _114
REMARK   47  A    between atoms: _114  and  _115
REMARK   48  A    between atoms: _120  and  _122
REMARK   49  A    between atoms: _122  and  _123
REMARK   50  A    between atoms: _122  and  _125
REMARK   51  A    between atoms: _125  and  _126
REMARK   52  A    between atoms: _129  and  _131
REMARK   53  A    between atoms: _131  and  _132
REMARK   54  A    between atoms: _131  and  _134
REMARK   55  A    between atoms: _134  and  _135
REMARK   56  A    between atoms: _135  and  _136
REMARK   57  A    between atoms: _136  and  _137
REMARK   58  A    between atoms: _137  and  _138
REMARK   59  A    between atoms: _142  and  _144
REMARK   60  A    between atoms: _144  and  _145
REMARK   61  A    between atoms: _144  and  _147
REMARK   62  A    between atoms: _147  and  _148
REMARK   63  A    between atoms: _151  and  _153
REMARK   64  A    between atoms: _153  and  _154
REMARK   65  A    between atoms: _153  and  _156
REMARK   66  A    between atoms: _156  and  _157
REMARK   67  A    between atoms: _157  and  _158
REMARK   68  A    between atoms: _158  and  _159
REMARK   69  A    between atoms: _159  and  _160
REMARK   70  A    between atoms: _164  and  _166
REMARK   71  A    between atoms: _166  and  _167
REMARK   72  A    between atoms: _169  and  _171
REMARK   73  A    between atoms: _171  and  _172
REMARK   74  A    between atoms: _171  and  _174
REMARK   75  A    between atoms: _174  and  _175
REMARK   76  A    between atoms: _178  and  _180
REMARK   77  A    between atoms: _180  and  _181
REMARK   78  A    between atoms: _184  and  _186
REMARK   79  A    between atoms: _186  and  _187
REMARK   80  A    between atoms: _186  and  _189
REMARK   81  A    between atoms: _189  and  _190
REMARK   82  A    between atoms: _193  and  _195
REMARK   83  A    between atoms: _195  and  _196
REMARK   84  A    between atoms: _195  and  _198
REMARK   85  A    between atoms: _198  and  _199
REMARK   86  A    between atoms: _199  and  _200
REMARK   87  A    between atoms: _202  and  _204
REMARK   88  A    between atoms: _204  and  _205
REMARK   89  A    between atoms: _204  and  _207
REMARK   90  A    between atoms: _207  and  _208
REMARK   91  A    between atoms: _218  and  _220
REMARK   92  A    between atoms: _220  and  _221
REMARK   93  A    between atoms: _220  and  _223
REMARK   94  A    between atoms: _223  and  _224
REMARK   95  A    between atoms: _227  and  _229
REMARK   96  A    between atoms: _229  and  _230
REMARK   97  A    between atoms: _229  and  _232
REMARK   98  A    between atoms: _232  and  _233
REMARK   99  A    between atoms: _233  and  _234
REMARK  100  A    between atoms: _234  and  _235
REMARK  101  A    between atoms: _235  and  _236
REMARK  102  A    between atoms: _240  and  _242
REMARK  103  A    between atoms: _242  and  _243
REMARK  104  A    between atoms: _242  and  _245
REMARK  105  A    between atoms: _245  and  _246
REMARK  106  A    between atoms: _246  and  _247
REMARK  107  A    between atoms: _247  and  _248
REMARK  108  A    between atoms: _257  and  _259
REMARK  109  A    between atoms: _259  and  _260
REMARK  110  A    between atoms: _262  and  _264
REMARK  111  A    between atoms: _264  and  _265
REMARK  112  A    between atoms: _264  and  _267
REMARK  113  A    between atoms: _267  and  _268
REMARK  114  A    between atoms: _271  and  _273
REMARK  115  A    between atoms: _273  and  _274
REMARK  116  A    between atoms: _273  and  _276
REMARK  117  A    between atoms: _276  and  _277
REMARK  118  A    between atoms: _277  and  _278
REMARK  119  A    between atoms: _278  and  _279
REMARK  120  A    between atoms: _288  and  _290
REMARK  121  A    between atoms: _290  and  _291
REMARK  122  A    between atoms: _290  and  _293
REMARK  123  A    between atoms: _293  and  _294
REMARK  124  A    between atoms: _300  and  _302
REMARK  125  A    between atoms: _302  and  _303
REMARK  126  A    between atoms: _302  and  _305
REMARK  127  A    between atoms: _305  and  _306
REMARK  128  A    between atoms: _309  and  _311
REMARK  129  A    between atoms: _311  and  _312
REMARK  130  A    between atoms: _311  and  _314
REMARK  131  A    between atoms: _314  and  _315
REMARK  132  A    between atoms: _321  and  _323
REMARK  133  A    between atoms: _323  and  _324
REMARK  134  A    between atoms: _323  and  _326
REMARK  135  A    between atoms: _326  and  _327
REMARK  136  A    between atoms: _330  and  _332
REMARK  137  A    between atoms: _332  and  _333
REMARK  138  A    between atoms: _332  and  _335
REMARK  139  A    between atoms: _335  and  _336
REMARK  140  A    between atoms: _339  and  _341
REMARK  141  A    between atoms: _341  and  _342
REMARK  142  A    between atoms: _341  and  _344
REMARK  143  A    between atoms: _344  and  _345
REMARK  144  A    between atoms: _348  and  _350
REMARK  145  A    between atoms: _350  and  _351
REMARK  146  A    between atoms: _350  and  _353
REMARK  147  A    between atoms: _353  and  _354
REMARK  148  A    between atoms: _354  and  _355
REMARK  149  A    between atoms: _355  and  _356
REMARK  150  A    between atoms: _365  and  _367
REMARK  151  A    between atoms: _367  and  _368
REMARK  152  A    between atoms: _367  and  _370
REMARK  153  A    between atoms: _370  and  _371
REMARK  154  A    between atoms: _376  and  _378
REMARK  155  A    between atoms: _378  and  _379
REMARK  156  A    between atoms: _382  and  _384
REMARK  157  A    between atoms: _384  and  _385
REMARK  158  A    between atoms: _384  and  _387
REMARK  159  A    between atoms: _387  and  _388
REMARK  160  A    between atoms: _391  and  _393
REMARK  161  A    between atoms: _393  and  _394
REMARK  162  A    between atoms: _397  and  _399
REMARK  163  A    between atoms: _399  and  _400
REMARK  164  A    between atoms: _399  and  _402
REMARK  165  A    between atoms: _402  and  _403
REMARK  166  A    between atoms: _408  and  _409
REMARK  167  A    between atoms: _411  and  _413
REMARK  168  A    between atoms: _413  and  _414
REMARK  169  A    between atoms: _417  and  _419
REMARK  170  A    between atoms: _419  and  _420
REMARK  171  A    between atoms: _419  and  _422
REMARK  172  A    between atoms: _422  and  _423
REMARK  173  A    between atoms: _426  and  _428
REMARK  174  A    between atoms: _428  and  _429
REMARK  175  A    between atoms: _428  and  _431
REMARK  176  A    between atoms: _431  and  _432
REMARK  177  A    between atoms: _432  and  _433
REMARK  178  A    between atoms: _433  and  _434
REMARK  179  A    between atoms: _434  and  _435
REMARK  180  A    between atoms: _439  and  _441
REMARK  181  A    between atoms: _441  and  _442
REMARK  182  A    between atoms: _441  and  _444
REMARK  183  A    between atoms: _444  and  _445
REMARK  184  A    between atoms: _450  and  _451
REMARK  185  A    between atoms: _453  and  _455
REMARK  186  A    between atoms: _455  and  _456
REMARK  187  A    between atoms: _455  and  _458
REMARK  188  A    between atoms: _458  and  _459
REMARK  189  A    between atoms: _464  and  _466
REMARK  190  A    between atoms: _466  and  _467
REMARK  191  A    between atoms: _469  and  _471
REMARK  192  A    between atoms: _471  and  _472
REMARK  193  A    between atoms: _471  and  _474
REMARK  194  A    between atoms: _474  and  _475
REMARK  195  A    between atoms: _478  and  _480
REMARK  196  A    between atoms: _480  and  _481
REMARK  197  A    between atoms: _480  and  _483
REMARK  198  A    between atoms: _486  and  _488
REMARK  199  A    between atoms: _488  and  _489
REMARK  200  A    between atoms: _488  and  _491
REMARK  201  A    between atoms: _491  and  _492
REMARK  202  A    between atoms: _495  and  _497
REMARK  203  A    between atoms: _497  and  _498
REMARK  204  A    between atoms: _497  and  _500
REMARK  205  A    between atoms: _500  and  _501
REMARK  206  A    between atoms: _507  and  _509
REMARK  207  A    between atoms: _509  and  _510
REMARK  208  A    between atoms: _509  and  _512
REMARK  209  A    between atoms: _512  and  _513
REMARK  210  A    between atoms: _513  and  _514
REMARK  211  A    between atoms: _519  and  _521
REMARK  212  A    between atoms: _521  and  _522
REMARK  213  A    between atoms: _525  and  _527
REMARK  214  A    between atoms: _527  and  _528
REMARK  215  A    between atoms: _531  and  _533
REMARK  216  A    between atoms: _533  and  _534
REMARK  217  A    between atoms: _533  and  _536
REMARK  218  A    between atoms: _536  and  _537
REMARK  219  A    between atoms: _540  and  _542
REMARK  220  A    between atoms: _542  and  _543
REMARK  221  A    between atoms: _542  and  _545
REMARK  222  A    between atoms: _545  and  _546
REMARK  223  A    between atoms: _551  and  _552
REMARK  224  A    between atoms: _554  and  _556
REMARK  225  A    between atoms: _556  and  _557
REMARK  226  A    between atoms: _560  and  _562
REMARK  227  A    between atoms: _562  and  _563
REMARK  228  A    between atoms: _567  and  _568
REMARK  229  A    between atoms: _573  and  _575
REMARK  230  A    between atoms: _575  and  _576
REMARK  231  A    between atoms: _575  and  _578
REMARK  232  A    between atoms: _578  and  _579
REMARK  233  A    between atoms: _585  and  _587
REMARK  234  A    between atoms: _587  and  _588
REMARK  235  A    between atoms: _587  and  _590
REMARK  236  A    between atoms: _590  and  _591
REMARK  237  A    between atoms: _596  and  _597
REMARK  238  A    between atoms: _599  and  _601
REMARK  239  A    between atoms: _601  and  _602
REMARK  240  A    between atoms: _601  and  _604
REMARK  241  A    between atoms: _604  and  _605
REMARK  242  A    between atoms: _605  and  _606
REMARK  243  A    between atoms: _606  and  _607
REMARK  244  A    between atoms: _607  and  _608
REMARK  245  A    between atoms: _612  and  _614
REMARK  246  A    between atoms: _614  and  _615
REMARK  247  A    between atoms: _614  and  _617
REMARK                            x       y       z     vdW  Elec       q    Type
REMARK                         _______ _______ _______ _____ _____    ______ ____
ROOT
ATOM      1  C   LYS A   7      14.250  -0.158  11.575  0.00  0.00    +0.241 C 
ATOM      2  N   ARG A   8      15.267  -0.809  12.132  0.00  0.00    -0.297 N 
ATOM      3  H   ARG A   8      16.164  -0.304  12.281  0.00  0.00    +0.150 HD
ATOM      4  O   LYS A   7      13.149  -0.667  11.424  0.00  0.00    -0.273 OA
ENDROOT
BRANCH   2   5
ATOM      5  CA  ARG A   8      15.171  -2.200  12.540  0.00  0.00    +0.149 C 
BRANCH   5   6
ATOM      6  C   ARG A   8      14.247  -2.368  13.749  0.00  0.00    +0.241 C 
ATOM      7  N   GLY A   9      14.290  -1.395  14.664  0.00  0.00    -0.295 N 
ATOM      8  H   GLY A   9      15.027  -0.665  14.588  0.00  0.00    +0.150 HD
ATOM      9  O   ARG A   8      13.501  -3.356  13.838  0.00  0.00    -0.273 OA
BRANCH   7  10
ATOM     10  CA  GLY A   9      13.341  -1.325  15.761  0.00  0.00    +0.176 C 
BRANCH  10  11
ATOM     11  C   GLY A   9      11.916  -1.084  15.280  0.00  0.00    +0.243 C 
ATOM     12  O   GLY A   9      10.978  -1.746  15.722  0.00  0.00    -0.273 OA
ATOM     13  N   LEU A  10      11.744  -0.150  14.351  0.00  0.00    -0.297 N 
ATOM     14  H   LEU A  10      12.560   0.390  13.999  0.00  0.00    +0.150 HD
BRANCH  13  15
ATOM     15  CA  LEU A  10      10.407   0.118  13.824  0.00  0.00    +0.149 C 
BRANCH  15  16
ATOM     16  C   LEU A  10       9.863  -1.095  13.037  0.00  0.00    +0.241 C 
ATOM     17  O   LEU A  10       8.695  -1.460  13.159  0.00  0.00    -0.273 OA
ATOM     18  N   ARG A  11      10.726  -1.729  12.253  0.00  0.00    -0.297 N 
ATOM     19  H   ARG A  11      11.689  -1.349  12.150  0.00  0.00    +0.150 HD
BRANCH  18  20
ATOM     20  CA  ARG A  11      10.362  -2.946  11.530  0.00  0.00    +0.149 C 
BRANCH  20  21
ATOM     21  C   ARG A  11      10.011  -4.090  12.461  0.00  0.00    +0.241 C 
ATOM     22  N   PHE A  12      10.748  -4.220  13.554  0.00  0.00    -0.297 N 
ATOM     23  H   PHE A  12      11.597  -3.632  13.677  0.00  0.00    +0.150 HD
ATOM     24  O   ARG A  11       9.102  -4.879  12.178  0.00  0.00    -0.273 OA
BRANCH  22  25
ATOM     25  CA  PHE A  12      10.378  -5.180  14.585  0.00  0.00    +0.153 C 
BRANCH  25  26
ATOM     26  C   PHE A  12       8.931  -4.959  14.997  0.00  0.00    +0.241 C 
ATOM     27  N   ILE A  13       8.591  -3.732  15.387  0.00  0.00    -0.298 N 
ATOM     28  H   ILE A  13       9.305  -2.976  15.374  0.00  0.00    +0.150 HD
ATOM     29  O   PHE A  12       8.126  -5.894  14.949  0.00  0.00    -0.273 OA
BRANCH  27  30
ATOM     30  CA  ILE A  13       7.219  -3.426  15.838  0.00  0.00    +0.137 C 
BRANCH  30  31
ATOM     31  C   ILE A  13       6.185  -3.697  14.734  0.00  0.00    +0.227 C 
ATOM     32  O   ILE A  13       5.072  -4.219  14.986  0.00  0.00    -0.286 OA
ENDBRANCH  30  31
BRANCH  30  33
ATOM     33  CB  ILE A  13       7.090  -1.973  16.302  0.00  0.00    +0.026 C 
ATOM     34  CG2 ILE A  13       5.625  -1.619  16.602  0.00  0.00    +0.002 C 
BRANCH  33  35
ATOM     35  CG1 ILE A  13       7.939  -1.755  17.561  0.00  0.00    +0.002 C 
ATOM     36  CD1 ILE A  13       8.270  -0.338  17.801  0.00  0.00    +0.000 C 
ENDBRANCH  33  35
ENDBRANCH  30  33
ENDBRANCH  27  30
ENDBRANCH  25  26
BRANCH  25  37
ATOM     37  CB  PHE A  12      11.256  -5.102  15.832  0.00  0.00    +0.055 C 
BRANCH  37  38
ATOM     38  CG  PHE A  12      10.869  -6.116  16.882  0.00  0.00    -0.020 A 
ATOM     39  CD2 PHE A  12       9.816  -5.863  17.768  0.00  0.00    -0.004 A 
ATOM     40  CE2 PHE A  12       9.419  -6.807  18.712  0.00  0.00    -0.000 A 
ATOM     41  CZ  PHE A  12      10.074  -8.014  18.777  0.00  0.00    -0.000 A 
ATOM     42  CE1 PHE A  12      11.134  -8.283  17.894  0.00  0.00    -0.000 A 
ATOM     43  CD1 PHE A  12      11.512  -7.339  16.939  0.00  0.00    -0.004 A 
ENDBRANCH  37  38
ENDBRANCH  25  37
ENDBRANCH  22  25
ENDBRANCH  20  21
BRANCH  20  44
ATOM     44  CB  ARG A  11      11.510  -3.382  10.635  0.00  0.00    +0.033 C 
BRANCH  44  45
ATOM     45  CG  ARG A  11      11.237  -4.669   9.866  0.00  0.00    +0.045 C 
BRANCH  45  46
ATOM     46  CD  ARG A  11      10.392  -4.427   8.667  0.00  0.00    +0.174 C 
BRANCH  46  47
ATOM     47  NE  ARG A  11      11.224  -4.204   7.496  0.00  0.00    -0.265 N 
ATOM     48  HE  ARG A  11      11.304  -3.262   7.063  0.00  0.00    +0.259 HD
ATOM     49  CZ  ARG A  11      11.902  -5.285   6.981  0.00  0.00    +0.342 C 
ATOM     50  NH2 ARG A  11      11.743  -6.521   7.505  0.00  0.00    -0.292 N 
ATOM     51 HH21 ARG A  11      11.100  -6.666   8.310  0.00  0.00    +0.255 HD
ATOM     52 HH22 ARG A  11      12.263  -7.327   7.103  0.00  0.00    +0.255 HD
ATOM     53  NH1 ARG A  11      12.767  -5.219   5.957  0.00  0.00    -0.292 N 
ATOM     54 HH11 ARG A  11      13.243  -6.081   5.622  0.00  0.00    +0.255 HD
ATOM     55 HH12 ARG A  11      12.962  -4.306   5.499  0.00  0.00    +0.255 HD
ENDBRANCH  46  47
ENDBRANCH  45  46
ENDBRANCH  44  45
ENDBRANCH  20  44
ENDBRANCH  18  20
ENDBRANCH  15  16
BRANCH  15  56
ATOM     56  CB  LEU A  10      10.410   1.394  12.980  0.00  0.00    +0.029 C 
BRANCH  56  57
ATOM     57  CG  LEU A  10      10.864   2.662  13.710  0.00  0.00    +0.002 C 
ATOM     58  CD2 LEU A  10       9.967   3.011  14.871  0.00  0.00    +0.000 C 
ATOM     59  CD1 LEU A  10      10.948   3.801  12.744  0.00  0.00    +0.000 C 
ENDBRANCH  56  57
ENDBRANCH  15  56
ENDBRANCH  13  15
ENDBRANCH  10  11
ENDBRANCH   7  10
ENDBRANCH   5   6
BRANCH   5  60
ATOM     60  CB  ARG A   8      16.543  -2.755  12.869  0.00  0.00    +0.033 C 
BRANCH  60  61
ATOM     61  CG  ARG A   8      17.486  -2.785  11.687  0.00  0.00    +0.045 C 
BRANCH  61  62
ATOM     62  CD  ARG A   8      18.910  -3.123  12.076  0.00  0.00    +0.174 C 
BRANCH  62  63
ATOM     63  NE  ARG A   8      19.795  -3.014  10.917  0.00  0.00    -0.265 N 
ATOM     64  CZ  ARG A   8      21.128  -3.082  10.962  0.00  0.00    +0.342 C 
ATOM     65  NH2 ARG A   8      21.762  -3.248  12.108  0.00  0.00    -0.292 N 
ATOM     66 HH21 ARG A   8      21.223  -3.328  12.994  0.00  0.00    +0.255 HD
ATOM     67 HH22 ARG A   8      22.801  -3.299  12.125  0.00  0.00    +0.255 HD
ATOM     68  NH1 ARG A   8      21.829  -2.997   9.854  0.00  0.00    -0.292 N 
ATOM     69 HH11 ARG A   8      22.867  -3.050   9.890  0.00  0.00    +0.255 HD
ATOM     70 HH12 ARG A   8      21.346  -2.877   8.941  0.00  0.00    +0.255 HD
ATOM     71  HE  ARG A   8      19.353  -2.873   9.986  0.00  0.00    +0.259 HD
ENDBRANCH  62  63
ENDBRANCH  61  62
ENDBRANCH  60  61
ENDBRANCH   5  60
ENDBRANCH   2   5
BRANCH   1  72
ATOM     72  CA  LYS A   7      14.492   1.306  11.166  0.00  0.00    +0.149 C 
BRANCH  72  75
ATOM     73  C   LEU A   6      14.986   2.079  13.398  0.00  0.00    +0.241 C 
ATOM     74  O   LEU A   6      13.992   1.505  13.837  0.00  0.00    -0.273 OA
ATOM     75  N   LYS A   7      15.331   2.015  12.117  0.00  0.00    -0.297 N 
ATOM     76  H   LYS A   7      16.206   2.475  11.793  0.00  0.00    +0.150 HD
BRANCH  73  77
ATOM     77  CA  LEU A   6      15.912   2.867  14.334  0.00  0.00    +0.149 C 
BRANCH  77  80
ATOM     78  C   TRP A   5      17.723   1.248  14.209  0.00  0.00    +0.241 C 
ATOM     79  O   TRP A   5      16.993   0.335  14.607  0.00  0.00    -0.273 OA
ATOM     80  N   LEU A   6      17.309   2.517  14.098  0.00  0.00    -0.297 N 
ATOM     81  H   LEU A   6      17.990   3.260  13.841  0.00  0.00    +0.150 HD
BRANCH  78  82
ATOM     82  CA  TRP A   5      19.175   0.948  13.848  0.00  0.00    +0.153 C 
BRANCH  82  84
ATOM     83  C   MET A   4      19.384   1.401  11.491  0.00  0.00    +0.241 C 
ATOM     84  N   TRP A   5      19.634   1.742  12.750  0.00  0.00    -0.297 N 
ATOM     85  H   TRP A   5      20.177   2.608  12.943  0.00  0.00    +0.150 HD
ATOM     86  O   MET A   4      18.783   0.375  11.174  0.00  0.00    -0.273 OA
BRANCH  83  87
ATOM     87  CA  MET A   4      19.917   2.336  10.432  0.00  0.00    +0.149 C 
BRANCH  87  89
ATOM     88  C   LEU A   3      18.516   4.188  11.046  0.00  0.00    +0.241 C 
ATOM     89  N   MET A   4      19.736   3.712  10.845  0.00  0.00    -0.297 N 
ATOM     90  H   MET A   4      20.563   4.327  10.984  0.00  0.00    +0.150 HD
ATOM     91  O   LEU A   3      17.515   3.512  10.828  0.00  0.00    -0.273 OA
BRANCH  88  92
ATOM     92  CA  LEU A   3      18.384   5.598  11.612  0.00  0.00    +0.149 C 
BRANCH  92  95
ATOM     93  C   ALA A   2      19.820   5.484  13.606  0.00  0.00    +0.241 C 
ATOM     94  O   ALA A   2      19.095   4.651  14.133  0.00  0.00    -0.273 OA
ATOM     95  N   LEU A   3      19.570   5.990  12.399  0.00  0.00    -0.297 N 
ATOM     96  H   LEU A   3      20.232   6.684  11.998  0.00  0.00    +0.150 HD
BRANCH  93  97
ATOM     97  CA  ALA A   2      21.093   5.974  14.325  0.00  0.00    +0.149 C 
ATOM     98  CB  ALA A   2      20.871   7.345  14.930  0.00  0.00    +0.031 C 
BRANCH  97 100
ATOM     99  C   LEU A   1      22.652   4.879  12.792  0.00  0.00    +0.238 C 
ATOM    100  N   ALA A   2      22.252   5.981  13.433  0.00  0.00    -0.297 N 
ATOM    101  H   ALA A   2      22.779   6.867  13.294  0.00  0.00    +0.150 HD
ATOM    102  O   LEU A   1      22.141   3.761  12.977  0.00  0.00    -0.274 OA
BRANCH  99 103
ATOM    103  CA  LEU A   1      23.822   5.036  11.815  0.00  0.00    +0.145 C 
BRANCH 103 104
ATOM    104  N   LEU A   1      23.716   6.221  10.979  0.00  0.00    -0.238 NA
ATOM    105  H   LEU A   1      24.389   7.003  11.108  0.00  0.00    +0.142 HD
ENDBRANCH 103 104
BRANCH 103 106
ATOM    106  CB  LEU A   1      25.147   5.035  12.584  0.00  0.00    +0.026 C 
BRANCH 106 107
ATOM    107  CG  LEU A   1      25.447   3.807  13.436  0.00  0.00    +0.002 C 
ATOM    108  CD2 LEU A   1      26.787   4.021  14.139  0.00  0.00    +0.000 C 
ATOM    109  CD1 LEU A   1      25.478   2.558  12.589  0.00  0.00    +0.000 C 
ENDBRANCH 106 107
ENDBRANCH 103 106
ENDBRANCH  99 103
ENDBRANCH  97 100
ENDBRANCH  93  97
ENDBRANCH  92  95
BRANCH  92 110
ATOM    110  CB  LEU A   3      18.085   6.609  10.494  0.00  0.00    +0.029 C 
BRANCH 110 111
ATOM    111  CG  LEU A   3      16.868   6.274   9.603  0.00  0.00    +0.002 C 
ATOM    112  CD2 LEU A   3      15.574   6.330  10.439  0.00  0.00    +0.000 C 
ATOM    113  CD1 LEU A   3      16.796   7.169   8.395  0.00  0.00    +0.000 C 
ENDBRANCH 110 111
ENDBRANCH  92 110
ENDBRANCH  88  92
ENDBRANCH  87  89
BRANCH  87 114
ATOM    114  CB  MET A   4      21.386   2.018  10.196  0.00  0.00    +0.041 C 
BRANCH 114 115
ATOM    115  CG  MET A   4      21.624   0.684   9.517  0.00  0.00    +0.060 C 
BRANCH 115 116
ATOM    116  SD  MET A   4      23.368   0.291   9.359  0.00  0.00    -0.139 S 
ATOM    117  CE  MET A   4      23.698  -0.262  11.023  0.00  0.00    +0.069 C 
ENDBRANCH 115 116
ENDBRANCH 114 115
ENDBRANCH  87 114
ENDBRANCH  83  87
ENDBRANCH  82  84
BRANCH  82 118
ATOM    118  CB  TRP A   5      20.115   1.097  15.049  0.00  0.00    +0.057 C 
BRANCH 118 119
ATOM    119  CG  TRP A   5      21.381   0.317  14.866  0.00  0.00    -0.002 A 
ATOM    120  CD2 TRP A   5      21.552  -1.091  15.072  0.00  0.00    +0.013 A 
ATOM    121  CE3 TRP A   5      20.711  -2.112  15.526  0.00  0.00    +0.001 A 
ATOM    122  CZ3 TRP A   5      21.210  -3.374  15.647  0.00  0.00    +0.000 A 
ATOM    123  CH2 TRP A   5      22.541  -3.662  15.326  0.00  0.00    +0.001 A 
ATOM    124  CZ2 TRP A   5      23.397  -2.690  14.871  0.00  0.00    +0.017 A 
ATOM    125  CE2 TRP A   5      22.890  -1.405  14.749  0.00  0.00    +0.056 A 
ATOM    126  NE1 TRP A   5      23.498  -0.246  14.347  0.00  0.00    -0.352 N 
ATOM    127  HE1 TRP A   5      24.489  -0.156  14.045  0.00  0.00    +0.166 HD
ATOM    128  CD1 TRP A   5      22.580   0.783  14.409  0.00  0.00    +0.068 A 
ENDBRANCH 118 119
ENDBRANCH  82 118
ENDBRANCH  78  82
ENDBRANCH  77  80
BRANCH  77 129
ATOM    129  CB  LEU A   6      15.681   4.356  14.148  0.00  0.00    +0.029 C 
BRANCH 129 130
ATOM    130  CG  LEU A   6      14.255   4.850  14.398  0.00  0.00    +0.002 C 
ATOM    131  CD2 LEU A   6      13.788   4.488  15.793  0.00  0.00    +0.000 C 
ATOM    132  CD1 LEU A   6      14.169   6.378  14.163  0.00  0.00    +0.000 C 
ENDBRANCH 129 130
ENDBRANCH  77 129
ENDBRANCH  73  77
ENDBRANCH  72  75
BRANCH  72 133
ATOM    133  CB  LYS A   7      15.025   1.450   9.731  0.00  0.00    +0.029 C 
BRANCH 133 134
ATOM    134  CG  LYS A   7      16.212   0.590   9.358  0.00  0.00    +0.000 C 
BRANCH 134 135
ATOM    135  CD  LYS A   7      16.536   0.769   7.854  0.00  0.00    -0.024 C 
BRANCH 135 136
ATOM    136  CE  LYS A   7      17.919   0.261   7.497  0.00  0.00    -0.086 C 
BRANCH 136 137
ATOM    137  NZ  LYS A   7      18.114  -1.140   7.880  0.00  0.00    +0.380 N 
ATOM    138  HZ1 LYS A   7      17.990  -1.238   8.908  0.00  0.00    -0.089 HD
ATOM    139  HZ2 LYS A   7      19.074  -1.440   7.615  0.00  0.00    -0.089 HD
ATOM    140  HZ3 LYS A   7      17.416  -1.733   7.388  0.00  0.00    -0.089 HD
ENDBRANCH 136 137
ENDBRANCH 135 136
ENDBRANCH 134 135
ENDBRANCH 133 134
ENDBRANCH  72 133
ENDBRANCH   1  72
TORSDOF 56
REMARK  Name = ../refined-set-2016/2evl/2evl_pocket.pdb
REMARK  247 active torsions:
REMARK  status: ('A' for Active; 'I' for Inactive)
REMARK    1  A    between atoms: _1  and  _3
REMARK    2  A    between atoms: _3  and  _4
REMARK    3  A    between atoms: _3  and  _6
REMARK    4  A    between atoms: _6  and  _7
REMARK    5  A    between atoms: _13  and  _15
REMARK    6  A    between atoms: _15  and  _16
REMARK    7  A    between atoms: _15  and  _18
REMARK    8  A    between atoms: _18  and  _19
REMARK    9  A    between atoms: _22  and  _24
REMARK   10  A    between atoms: _24  and  _25
REMARK   11  A    between atoms: _24  and  _27
REMARK   12  A    between atoms: _30  and  _32
REMARK   13  A    between atoms: _32  and  _33
REMARK   14  A    between atoms: _32  and  _35
REMARK   15  A    between atoms: _35  and  _36
REMARK   16  A    between atoms: _42  and  _44
REMARK   17  A    between atoms: _44  and  _45
REMARK   18  A    between atoms: _44  and  _47
REMARK   19  A    between atoms: _47  and  _48
REMARK   20  A    between atoms: _52  and  _53
REMARK   21  A    between atoms: _58  and  _60
REMARK   22  A    between atoms: _60  and  _61
REMARK   23  A    between atoms: _60  and  _63
REMARK   24  A    between atoms: _63  and  _64
REMARK   25  A    between atoms: _67  and  _69
REMARK   26  A    between atoms: _69  and  _70
REMARK   27  A    between atoms: _69  and  _72
REMARK   28  A    between atoms: _72  and  _73
REMARK   29  A    between atoms: _73  and  _74
REMARK   30  A    between atoms: _74  and  _75
REMARK   31  A    between atoms: _75  and  _76
REMARK   32  A    between atoms: _80  and  _82
REMARK   33  A    between atoms: _82  and  _83
REMARK   34  A    between atoms: _86  and  _88
REMARK   35  A    between atoms: _88  and  _89
REMARK   36  A    between atoms: _88  and  _91
REMARK   37  A    between atoms: _91  and  _92
REMARK   38  A    between atoms: _95  and  _97
REMARK   39  A    between atoms: _97  and  _98
REMARK   40  A    between atoms: _97  and  _100
REMARK   41  A    between atoms: _100  and  _101
REMARK   42  A    between atoms: _104  and  _106
REMARK   43  A    between atoms: _106  and  _107
REMARK   44  A    between atoms: _109  and  _111
REMARK   45  A    between atoms: _111  and  _112
REMARK   46  A    between atoms: _111  and  _114
REMARK   47  A    between atoms: _114  and  _115
REMARK   48  A    between atoms: _120  and  _122
REMARK   49  A    between atoms: _122  and  _123
REMARK   50  A    between atoms: _122  and  _125
REMARK   51  A    between atoms: _125  and  _126
REMARK   52  A    between atoms: _129  and  _131
REMARK   53  A    between atoms: _131  and  _132
REMARK   54  A    between atoms: _131  and  _134
REMARK   55  A    between atoms: _134  and  _135
REMARK   56  A    between atoms: _135  and  _136
REMARK   57  A    between atoms: _136  and  _137
REMARK   58  A    between atoms: _137  and  _138
REMARK   59  A    between atoms: _142  and  _144
REMARK   60  A    between atoms: _144  and  _145
REMARK   61  A    between atoms: _144  and  _147
REMARK   62  A    between atoms: _147  and  _148
REMARK   63  A    between atoms: _151  and  _153
REMARK   64  A    between atoms: _153  and  _154
REMARK   65  A    between atoms: _153  and  _156
REMARK   66  A    between atoms: _156  and  _157
REMARK   67  A    between atoms: _157  and  _158
REMARK   68  A    between atoms: _158  and  _159
REMARK   69  A    between atoms: _159  and  _160
REMARK   70  A    between atoms: _164  and  _166
REMARK   71  A    between atoms: _166  and  _167
REMARK   72  A    between atoms: _169  and  _171
REMARK   73  A    between atoms: _171  and  _172
REMARK   74  A    between atoms: _171  and  _174
REMARK   75  A    between atoms: _174  and  _175
REMARK   76  A    between atoms: _178  and  _180
REMARK   77  A    between atoms: _180  and  _181
REMARK   78  A    between atoms: _184  and  _186
REMARK   79  A    between atoms: _186  and  _187
REMARK   80  A    between atoms: _186  and  _189
REMARK   81  A    between atoms: _189  and  _190
REMARK   82  A    between atoms: _193  and  _195
REMARK   83  A    between atoms: _195  and  _196
REMARK   84  A    between atoms: _195  and  _198
REMARK   85  A    between atoms: _198  and  _199
REMARK   86  A    between atoms: _199  and  _200
REMARK   87  A    between atoms: _202  and  _204
REMARK   88  A    between atoms: _204  and  _205
REMARK   89  A    between atoms: _204  and  _207
REMARK   90  A    between atoms: _207  and  _208
REMARK   91  A    between atoms: _218  and  _220
REMARK   92  A    between atoms: _220  and  _221
REMARK   93  A    between atoms: _220  and  _223
REMARK   94  A    between atoms: _223  and  _224
REMARK   95  A    between atoms: _227  and  _229
REMARK   96  A    between atoms: _229  and  _230
REMARK   97  A    between atoms: _229  and  _232
REMARK   98  A    between atoms: _232  and  _233
REMARK   99  A    between atoms: _233  and  _234
REMARK  100  A    between atoms: _234  and  _235
REMARK  101  A    between atoms: _235  and  _236
REMARK  102  A    between atoms: _240  and  _242
REMARK  103  A    between atoms: _242  and  _243
REMARK  104  A    between atoms: _242  and  _245
REMARK  105  A    between atoms: _245  and  _246
REMARK  106  A    between atoms: _246  and  _247
REMARK  107  A    between atoms: _247  and  _248
REMARK  108  A    between atoms: _257  and  _259
REMARK  109  A    between atoms: _259  and  _260
REMARK  110  A    between atoms: _262  and  _264
REMARK  111  A    between atoms: _264  and  _265
REMARK  112  A    between atoms: _264  and  _267
REMARK  113  A    between atoms: _267  and  _268
REMARK  114  A    between atoms: _271  and  _273
REMARK  115  A    between atoms: _273  and  _274
REMARK  116  A    between atoms: _273  and  _276
REMARK  117  A    between atoms: _276  and  _277
REMARK  118  A    between atoms: _277  and  _278
REMARK  119  A    between atoms: _278  and  _279
REMARK  120  A    between atoms: _288  and  _290
REMARK  121  A    between atoms: _290  and  _291
REMARK  122  A    between atoms: _290  and  _293
REMARK  123  A    between atoms: _293  and  _294
REMARK  124  A    between atoms: _300  and  _302
REMARK  125  A    between atoms: _302  and  _303
REMARK  126  A    between atoms: _302  and  _305
REMARK  127  A    between atoms: _305  and  _306
REMARK  128  A    between atoms: _309  and  _311
REMARK  129  A    between atoms: _311  and  _312
REMARK  130  A    between atoms: _311  and  _314
REMARK  131  A    between atoms: _314  and  _315
REMARK  132  A    between atoms: _321  and  _323
REMARK  133  A    between atoms: _323  and  _324
REMARK  134  A    between atoms: _323  and  _326
REMARK  135  A    between atoms: _326  and  _327
REMARK  136  A    between atoms: _330  and  _332
REMARK  137  A    between atoms: _332  and  _333
REMARK  138  A    between atoms: _332  and  _335
REMARK  139  A    between atoms: _335  and  _336
REMARK  140  A    between atoms: _339  and  _341
REMARK  141  A    between atoms: _341  and  _342
REMARK  142  A    between atoms: _341  and  _344
REMARK  143  A    between atoms: _344  and  _345
REMARK  144  A    between atoms: _348  and  _350
REMARK  145  A    between atoms: _350  and  _351
REMARK  146  A    between atoms: _350  and  _353
REMARK  147  A    between atoms: _353  and  _354
REMARK  148  A    between atoms: _354  and  _355
REMARK  149  A    between atoms: _355  and  _356
REMARK  150  A    between atoms: _365  and  _367
REMARK  151  A    between atoms: _367  and  _368
REMARK  152  A    between atoms: _367  and  _370
REMARK  153  A    between atoms: _370  and  _371
REMARK  154  A    between atoms: _376  and  _378
REMARK  155  A    between atoms: _378  and  _379
REMARK  156  A    between atoms: _382  and  _384
REMARK  157  A    between atoms: _384  and  _385
REMARK  158  A    between atoms: _384  and  _387
REMARK  159  A    between atoms: _387  and  _388
REMARK  160  A    between atoms: _391  and  _393
REMARK  161  A    between atoms: _393  and  _394
REMARK  162  A    between atoms: _397  and  _399
REMARK  163  A    between atoms: _399  and  _400
REMARK  164  A    between atoms: _399  and  _402
REMARK  165  A    between atoms: _402  and  _403
REMARK  166  A    between atoms: _408  and  _409
REMARK  167  A    between atoms: _411  and  _413
REMARK  168  A    between atoms: _413  and  _414
REMARK  169  A    between atoms: _417  and  _419
REMARK  170  A    between atoms: _419  and  _420
REMARK  171  A    between atoms: _419  and  _422
REMARK  172  A    between atoms: _422  and  _423
REMARK  173  A    between atoms: _426  and  _428
REMARK  174  A    between atoms: _428  and  _429
REMARK  175  A    between atoms: _428  and  _431
REMARK  176  A    between atoms: _431  and  _432
REMARK  177  A    between atoms: _432  and  _433
REMARK  178  A    between atoms: _433  and  _434
REMARK  179  A    between atoms: _434  and  _435
REMARK  180  A    between atoms: _439  and  _441
REMARK  181  A    between atoms: _441  and  _442
REMARK  182  A    between atoms: _441  and  _444
REMARK  183  A    between atoms: _444  and  _445
REMARK  184  A    between atoms: _450  and  _451
REMARK  185  A    between atoms: _453  and  _455
REMARK  186  A    between atoms: _455  and  _456
REMARK  187  A    between atoms: _455  and  _458
REMARK  188  A    between atoms: _458  and  _459
REMARK  189  A    between atoms: _464  and  _466
REMARK  190  A    between atoms: _466  and  _467
REMARK  191  A    between atoms: _469  and  _471
REMARK  192  A    between atoms: _471  and  _472
REMARK  193  A    between atoms: _471  and  _474
REMARK  194  A    between atoms: _474  and  _475
REMARK  195  A    between atoms: _478  and  _480
REMARK  196  A    between atoms: _480  and  _481
REMARK  197  A    between atoms: _480  and  _483
REMARK  198  A    between atoms: _486  and  _488
REMARK  199  A    between atoms: _488  and  _489
REMARK  200  A    between atoms: _488  and  _491
REMARK  201  A    between atoms: _491  and  _492
REMARK  202  A    between atoms: _495  and  _497
REMARK  203  A    between atoms: _497  and  _498
REMARK  204  A    between atoms: _497  and  _500
REMARK  205  A    between atoms: _500  and  _501
REMARK  206  A    between atoms: _507  and  _509
REMARK  207  A    between atoms: _509  and  _510
REMARK  208  A    between atoms: _509  and  _512
REMARK  209  A    between atoms: _512  and  _513
REMARK  210  A    between atoms: _513  and  _514
REMARK  211  A    between atoms: _519  and  _521
REMARK  212  A    between atoms: _521  and  _522
REMARK  213  A    between atoms: _525  and  _527
REMARK  214  A    between atoms: _527  and  _528
REMARK  215  A    between atoms: _531  and  _533
REMARK  216  A    between atoms: _533  and  _534
REMARK  217  A    between atoms: _533  and  _536
REMARK  218  A    between atoms: _536  and  _537
REMARK  219  A    between atoms: _540  and  _542
REMARK  220  A    between atoms: _542  and  _543
REMARK  221  A    between atoms: _542  and  _545
REMARK  222  A    between atoms: _545  and  _546
REMARK  223  A    between atoms: _551  and  _552
REMARK  224  A    between atoms: _554  and  _556
REMARK  225  A    between atoms: _556  and  _557
REMARK  226  A    between atoms: _560  and  _562
REMARK  227  A    between atoms: _562  and  _563
REMARK  228  A    between atoms: _567  and  _568
REMARK  229  A    between atoms: _573  and  _575
REMARK  230  A    between atoms: _575  and  _576
REMARK  231  A    between atoms: _575  and  _578
REMARK  232  A    between atoms: _578  and  _579
REMARK  233  A    between atoms: _585  and  _587
REMARK  234  A    between atoms: _587  and  _588
REMARK  235  A    between atoms: _587  and  _590
REMARK  236  A    between atoms: _590  and  _591
REMARK  237  A    between atoms: _596  and  _597
REMARK  238  A    between atoms: _599  and  _601
REMARK  239  A    between atoms: _601  and  _602
REMARK  240  A    between atoms: _601  and  _604
REMARK  241  A    between atoms: _604  and  _605
REMARK  242  A    between atoms: _605  and  _606
REMARK  243  A    between atoms: _606  and  _607
REMARK  244  A    between atoms: _607  and  _608
REMARK  245  A    between atoms: _612  and  _614
REMARK  246  A    between atoms: _614  and  _615
REMARK  247  A    between atoms: _614  and  _617
REMARK                            x       y       z     vdW  Elec       q    Type
REMARK                         _______ _______ _______ _____ _____    ______ ____
ROOT
ATOM      1  C   PHE A   1       3.570  -7.696  15.348  0.00  0.00    +0.239 C 
ATOM      2  O   PHE A   1       2.709  -8.570  15.541  0.00  0.00    -0.274 OA
ATOM      3  N   LEU A   2       3.243  -6.426  15.099  0.00  0.00    -0.298 N 
ATOM      4  H   LEU A   2       3.983  -5.721  14.906  0.00  0.00    +0.150 HD
ENDROOT
BRANCH   1   5
ATOM      5  CA  PHE A   1       5.069  -8.029  15.422  0.00  0.00    +0.149 C 
BRANCH   5   6
ATOM      6  N   PHE A   1       5.802  -7.557  14.256  0.00  0.00    -0.238 NA
ATOM      7  H   PHE A   1       6.592  -6.895  14.398  0.00  0.00    +0.142 HD
ENDBRANCH   5   6
BRANCH   5   8
ATOM      8  CB  PHE A   1       5.687  -7.410  16.670  0.00  0.00    +0.053 C 
BRANCH   8   9
ATOM      9  CG  PHE A   1       5.038  -7.827  17.958  0.00  0.00    -0.020 A 
ATOM     10  CD2 PHE A   1       4.302  -6.911  18.715  0.00  0.00    -0.004 A 
ATOM     11  CE2 PHE A   1       3.716  -7.290  19.921  0.00  0.00    -0.000 A 
ATOM     12  CZ  PHE A   1       3.858  -8.607  20.388  0.00  0.00    -0.000 A 
ATOM     13  CE1 PHE A   1       4.592  -9.510  19.666  0.00  0.00    -0.000 A 
ATOM     14  CD1 PHE A   1       5.175  -9.122  18.435  0.00  0.00    -0.004 A 
ENDBRANCH   8   9
ENDBRANCH   5   8
ENDBRANCH   1   5
BRANCH   3  15
ATOM     15  CA  LEU A   2       1.845  -6.039  15.100  0.00  0.00    +0.137 C 
BRANCH  15  16
ATOM     16  C   LEU A   2       1.047  -6.694  13.965  0.00  0.00    +0.227 C 
ATOM     17  O   LEU A   2      -0.127  -7.008  14.164  0.00  0.00    -0.286 OA
ENDBRANCH  15  16
BRANCH  15  18
ATOM     18  CB  LEU A   2       1.676  -4.525  15.052  0.00  0.00    +0.028 C 
BRANCH  18  19
ATOM     19  CG  LEU A   2       2.099  -3.767  16.315  0.00  0.00    +0.002 C 
ATOM     20  CD2 LEU A   2       1.368  -4.264  17.560  0.00  0.00    +0.000 C 
ATOM     21  CD1 LEU A   2       1.870  -2.270  16.089  0.00  0.00    +0.000 C 
ENDBRANCH  18  19
ENDBRANCH  15  18
ENDBRANCH   3  15
TORSDOF 8
REMARK  Name = ../refined-set-2016/2evl/2evl_pocket.pdb
REMARK  247 active torsions:
REMARK  status: ('A' for Active; 'I' for Inactive)
REMARK    1  A    between atoms: _1  and  _3
REMARK    2  A    between atoms: _3  and  _4
REMARK    3  A    between atoms: _3  and  _6
REMARK    4  A    between atoms: _6  and  _7
REMARK    5  A    between atoms: _13  and  _15
REMARK    6  A    between atoms: _15  and  _16
REMARK    7  A    between atoms: _15  and  _18
REMARK    8  A    between atoms: _18  and  _19
REMARK    9  A    between atoms: _22  and  _24
REMARK   10  A    between atoms: _24  and  _25
REMARK   11  A    between atoms: _24  and  _27
REMARK   12  A    between atoms: _30  and  _32
REMARK   13  A    between atoms: _32  and  _33
REMARK   14  A    between atoms: _32  and  _35
REMARK   15  A    between atoms: _35  and  _36
REMARK   16  A    between atoms: _42  and  _44
REMARK   17  A    between atoms: _44  and  _45
REMARK   18  A    between atoms: _44  and  _47
REMARK   19  A    between atoms: _47  and  _48
REMARK   20  A    between atoms: _52  and  _53
REMARK   21  A    between atoms: _58  and  _60
REMARK   22  A    between atoms: _60  and  _61
REMARK   23  A    between atoms: _60  and  _63
REMARK   24  A    between atoms: _63  and  _64
REMARK   25  A    between atoms: _67  and  _69
REMARK   26  A    between atoms: _69  and  _70
REMARK   27  A    between atoms: _69  and  _72
REMARK   28  A    between atoms: _72  and  _73
REMARK   29  A    between atoms: _73  and  _74
REMARK   30  A    between atoms: _74  and  _75
REMARK   31  A    between atoms: _75  and  _76
REMARK   32  A    between atoms: _80  and  _82
REMARK   33  A    between atoms: _82  and  _83
REMARK   34  A    between atoms: _86  and  _88
REMARK   35  A    between atoms: _88  and  _89
REMARK   36  A    between atoms: _88  and  _91
REMARK   37  A    between atoms: _91  and  _92
REMARK   38  A    between atoms: _95  and  _97
REMARK   39  A    between atoms: _97  and  _98
REMARK   40  A    between atoms: _97  and  _100
REMARK   41  A    between atoms: _100  and  _101
REMARK   42  A    between atoms: _104  and  _106
REMARK   43  A    between atoms: _106  and  _107
REMARK   44  A    between atoms: _109  and  _111
REMARK   45  A    between atoms: _111  and  _112
REMARK   46  A    between atoms: _111  and  _114
REMARK   47  A    between atoms: _114  and  _115
REMARK   48  A    between atoms: _120  and  _122
REMARK   49  A    between atoms: _122  and  _123
REMARK   50  A    between atoms: _122  and  _125
REMARK   51  A    between atoms: _125  and  _126
REMARK   52  A    between atoms: _129  and  _131
REMARK   53  A    between atoms: _131  and  _132
REMARK   54  A    between atoms: _131  and  _134
REMARK   55  A    between atoms: _134  and  _135
REMARK   56  A    between atoms: _135  and  _136
REMARK   57  A    between atoms: _136  and  _137
REMARK   58  A    between atoms: _137  and  _138
REMARK   59  A    between atoms: _142  and  _144
REMARK   60  A    between atoms: _144  and  _145
REMARK   61  A    between atoms: _144  and  _147
REMARK   62  A    between atoms: _147  and  _148
REMARK   63  A    between atoms: _151  and  _153
REMARK   64  A    between atoms: _153  and  _154
REMARK   65  A    between atoms: _153  and  _156
REMARK   66  A    between atoms: _156  and  _157
REMARK   67  A    between atoms: _157  and  _158
REMARK   68  A    between atoms: _158  and  _159
REMARK   69  A    between atoms: _159  and  _160
REMARK   70  A    between atoms: _164  and  _166
REMARK   71  A    between atoms: _166  and  _167
REMARK   72  A    between atoms: _169  and  _171
REMARK   73  A    between atoms: _171  and  _172
REMARK   74  A    between atoms: _171  and  _174
REMARK   75  A    between atoms: _174  and  _175
REMARK   76  A    between atoms: _178  and  _180
REMARK   77  A    between atoms: _180  and  _181
REMARK   78  A    between atoms: _184  and  _186
REMARK   79  A    between atoms: _186  and  _187
REMARK   80  A    between atoms: _186  and  _189
REMARK   81  A    between atoms: _189  and  _190
REMARK   82  A    between atoms: _193  and  _195
REMARK   83  A    between atoms: _195  and  _196
REMARK   84  A    between atoms: _195  and  _198
REMARK   85  A    between atoms: _198  and  _199
REMARK   86  A    between atoms: _199  and  _200
REMARK   87  A    between atoms: _202  and  _204
REMARK   88  A    between atoms: _204  and  _205
REMARK   89  A    between atoms: _204  and  _207
REMARK   90  A    between atoms: _207  and  _208
REMARK   91  A    between atoms: _218  and  _220
REMARK   92  A    between atoms: _220  and  _221
REMARK   93  A    between atoms: _220  and  _223
REMARK   94  A    between atoms: _223  and  _224
REMARK   95  A    between atoms: _227  and  _229
REMARK   96  A    between atoms: _229  and  _230
REMARK   97  A    between atoms: _229  and  _232
REMARK   98  A    between atoms: _232  and  _233
REMARK   99  A    between atoms: _233  and  _234
REMARK  100  A    between atoms: _234  and  _235
REMARK  101  A    between atoms: _235  and  _236
REMARK  102  A    between atoms: _240  and  _242
REMARK  103  A    between atoms: _242  and  _243
REMARK  104  A    between atoms: _242  and  _245
REMARK  105  A    between atoms: _245  and  _246
REMARK  106  A    between atoms: _246  and  _247
REMARK  107  A    between atoms: _247  and  _248
REMARK  108  A    between atoms: _257  and  _259
REMARK  109  A    between atoms: _259  and  _260
REMARK  110  A    between atoms: _262  and  _264
REMARK  111  A    between atoms: _264  and  _265
REMARK  112  A    between atoms: _264  and  _267
REMARK  113  A    between atoms: _267  and  _268
REMARK  114  A    between atoms: _271  and  _273
REMARK  115  A    between atoms: _273  and  _274
REMARK  116  A    between atoms: _273  and  _276
REMARK  117  A    between atoms: _276  and  _277
REMARK  118  A    between atoms: _277  and  _278
REMARK  119  A    between atoms: _278  and  _279
REMARK  120  A    between atoms: _288  and  _290
REMARK  121  A    between atoms: _290  and  _291
REMARK  122  A    between atoms: _290  and  _293
REMARK  123  A    between atoms: _293  and  _294
REMARK  124  A    between atoms: _300  and  _302
REMARK  125  A    between atoms: _302  and  _303
REMARK  126  A    between atoms: _302  and  _305
REMARK  127  A    between atoms: _305  and  _306
REMARK  128  A    between atoms: _309  and  _311
REMARK  129  A    between atoms: _311  and  _312
REMARK  130  A    between atoms: _311  and  _314
REMARK  131  A    between atoms: _314  and  _315
REMARK  132  A    between atoms: _321  and  _323
REMARK  133  A    between atoms: _323  and  _324
REMARK  134  A    between atoms: _323  and  _326
REMARK  135  A    between atoms: _326  and  _327
REMARK  136  A    between atoms: _330  and  _332
REMARK  137  A    between atoms: _332  and  _333
REMARK  138  A    between atoms: _332  and  _335
REMARK  139  A    between atoms: _335  and  _336
REMARK  140  A    between atoms: _339  and  _341
REMARK  141  A    between atoms: _341  and  _342
REMARK  142  A    between atoms: _341  and  _344
REMARK  143  A    between atoms: _344  and  _345
REMARK  144  A    between atoms: _348  and  _350
REMARK  145  A    between atoms: _350  and  _351
REMARK  146  A    between atoms: _350  and  _353
REMARK  147  A    between atoms: _353  and  _354
REMARK  148  A    between atoms: _354  and  _355
REMARK  149  A    between atoms: _355  and  _356
REMARK  150  A    between atoms: _365  and  _367
REMARK  151  A    between atoms: _367  and  _368
REMARK  152  A    between atoms: _367  and  _370
REMARK  153  A    between atoms: _370  and  _371
REMARK  154  A    between atoms: _376  and  _378
REMARK  155  A    between atoms: _378  and  _379
REMARK  156  A    between atoms: _382  and  _384
REMARK  157  A    between atoms: _384  and  _385
REMARK  158  A    between atoms: _384  and  _387
REMARK  159  A    between atoms: _387  and  _388
REMARK  160  A    between atoms: _391  and  _393
REMARK  161  A    between atoms: _393  and  _394
REMARK  162  A    between atoms: _397  and  _399
REMARK  163  A    between atoms: _399  and  _400
REMARK  164  A    between atoms: _399  and  _402
REMARK  165  A    between atoms: _402  and  _403
REMARK  166  A    between atoms: _408  and  _409
REMARK  167  A    between atoms: _411  and  _413
REMARK  168  A    between atoms: _413  and  _414
REMARK  169  A    between atoms: _417  and  _419
REMARK  170  A    between atoms: _419  and  _420
REMARK  171  A    between atoms: _419  and  _422
REMARK  172  A    between atoms: _422  and  _423
REMARK  173  A    between atoms: _426  and  _428
REMARK  174  A    between atoms: _428  and  _429
REMARK  175  A    between atoms: _428  and  _431
REMARK  176  A    between atoms: _431  and  _432
REMARK  177  A    between atoms: _432  and  _433
REMARK  178  A    between atoms: _433  and  _434
REMARK  179  A    between atoms: _434  and  _435
REMARK  180  A    between atoms: _439  and  _441
REMARK  181  A    between atoms: _441  and  _442
REMARK  182  A    between atoms: _441  and  _444
REMARK  183  A    between atoms: _444  and  _445
REMARK  184  A    between atoms: _450  and  _451
REMARK  185  A    between atoms: _453  and  _455
REMARK  186  A    between atoms: _455  and  _456
REMARK  187  A    between atoms: _455  and  _458
REMARK  188  A    between atoms: _458  and  _459
REMARK  189  A    between atoms: _464  and  _466
REMARK  190  A    between atoms: _466  and  _467
REMARK  191  A    between atoms: _469  and  _471
REMARK  192  A    between atoms: _471  and  _472
REMARK  193  A    between atoms: _471  and  _474
REMARK  194  A    between atoms: _474  and  _475
REMARK  195  A    between atoms: _478  and  _480
REMARK  196  A    between atoms: _480  and  _481
REMARK  197  A    between atoms: _480  and  _483
REMARK  198  A    between atoms: _486  and  _488
REMARK  199  A    between atoms: _488  and  _489
REMARK  200  A    between atoms: _488  and  _491
REMARK  201  A    between atoms: _491  and  _492
REMARK  202  A    between atoms: _495  and  _497
REMARK  203  A    between atoms: _497  and  _498
REMARK  204  A    between atoms: _497  and  _500
REMARK  205  A    between atoms: _500  and  _501
REMARK  206  A    between atoms: _507  and  _509
REMARK  207  A    between atoms: _509  and  _510
REMARK  208  A    between atoms: _509  and  _512
REMARK  209  A    between atoms: _512  and  _513
REMARK  210  A    between atoms: _513  and  _514
REMARK  211  A    between atoms: _519  and  _521
REMARK  212  A    between atoms: _521  and  _522
REMARK  213  A    between atoms: _525  and  _527
REMARK  214  A    between atoms: _527  and  _528
REMARK  215  A    between atoms: _531  and  _533
REMARK  216  A    between atoms: _533  and  _534
REMARK  217  A    between atoms: _533  and  _536
REMARK  218  A    between atoms: _536  and  _537
REMARK  219  A    between atoms: _540  and  _542
REMARK  220  A    between atoms: _542  and  _543
REMARK  221  A    between atoms: _542  and  _545
REMARK  222  A    between atoms: _545  and  _546
REMARK  223  A    between atoms: _551  and  _552
REMARK  224  A    between atoms: _554  and  _556
REMARK  225  A    between atoms: _556  and  _557
REMARK  226  A    between atoms: _560  and  _562
REMARK  227  A    between atoms: _562  and  _563
REMARK  228  A    between atoms: _567  and  _568
REMARK  229  A    between atoms: _573  and  _575
REMARK  230  A    between atoms: _575  and  _576
REMARK  231  A    between atoms: _575  and  _578
REMARK  232  A    between atoms: _578  and  _579
REMARK  233  A    between atoms: _585  and  _587
REMARK  234  A    between atoms: _587  and  _588
REMARK  235  A    between atoms: _587  and  _590
REMARK  236  A    between atoms: _590  and  _591
REMARK  237  A    between atoms: _596  and  _597
REMARK  238  A    between atoms: _599  and  _601
REMARK  239  A    between atoms: _601  and  _602
REMARK  240  A    between atoms: _601  and  _604
REMARK  241  A    between atoms: _604  and  _605
REMARK  242  A    between atoms: _605  and  _606
REMARK  243  A    between atoms: _606  and  _607
REMARK  244  A    between atoms: _607  and  _608
REMARK  245  A    between atoms: _612  and  _614
REMARK  246  A    between atoms: _614  and  _615
REMARK  247  A    between atoms: _614  and  _617
REMARK                            x       y       z     vdW  Elec       q    Type
REMARK                         _______ _______ _______ _____ _____    ______ ____
ROOT
ATOM      1  CA  ILE A   1      -0.826 -10.375  15.639  0.00  0.00    +0.133 C 
ENDROOT
BRANCH   1   2
ATOM      2  N   ILE A   1       0.288 -10.290  14.696  0.00  0.00    -0.239 NA
ATOM      3  H   ILE A   1       0.995  -9.536  14.809  0.00  0.00    +0.142 HD
ENDBRANCH   1   2
BRANCH   1   4
ATOM      4  CB  ILE A   1      -0.793  -9.299  16.746  0.00  0.00    +0.023 C 
ATOM      5  CG2 ILE A   1      -2.043  -9.414  17.626  0.00  0.00    +0.002 C 
BRANCH   4   6
ATOM      6  CG1 ILE A   1       0.466  -9.390  17.628  0.00  0.00    +0.002 C 
ATOM      7  CD1 ILE A   1       0.414 -10.486  18.634  0.00  0.00    +0.000 C 
ENDBRANCH   4   6
ENDBRANCH   1   4
BRANCH   1   8
ATOM      8  C   ILE A   1      -2.146 -10.174  14.886  0.00  0.00    +0.224 C 
ATOM      9  O   ILE A   1      -3.072 -10.970  15.024  0.00  0.00    -0.287 OA
ENDBRANCH   1   8
TORSDOF 4
REMARK  Name = ../refined-set-2016/2evl/2evl_pocket.pdb
REMARK  247 active torsions:
REMARK  status: ('A' for Active; 'I' for Inactive)
REMARK    1  A    between atoms: _1  and  _3
REMARK    2  A    between atoms: _3  and  _4
REMARK    3  A    between atoms: _3  and  _6
REMARK    4  A    between atoms: _6  and  _7
REMARK    5  A    between atoms: _13  and  _15
REMARK    6  A    between atoms: _15  and  _16
REMARK    7  A    between atoms: _15  and  _18
REMARK    8  A    between atoms: _18  and  _19
REMARK    9  A    between atoms: _22  and  _24
REMARK   10  A    between atoms: _24  and  _25
REMARK   11  A    between atoms: _24  and  _27
REMARK   12  A    between atoms: _30  and  _32
REMARK   13  A    between atoms: _32  and  _33
REMARK   14  A    between atoms: _32  and  _35
REMARK   15  A    between atoms: _35  and  _36
REMARK   16  A    between atoms: _42  and  _44
REMARK   17  A    between atoms: _44  and  _45
REMARK   18  A    between atoms: _44  and  _47
REMARK   19  A    between atoms: _47  and  _48
REMARK   20  A    between atoms: _52  and  _53
REMARK   21  A    between atoms: _58  and  _60
REMARK   22  A    between atoms: _60  and  _61
REMARK   23  A    between atoms: _60  and  _63
REMARK   24  A    between atoms: _63  and  _64
REMARK   25  A    between atoms: _67  and  _69
REMARK   26  A    between atoms: _69  and  _70
REMARK   27  A    between atoms: _69  and  _72
REMARK   28  A    between atoms: _72  and  _73
REMARK   29  A    between atoms: _73  and  _74
REMARK   30  A    between atoms: _74  and  _75
REMARK   31  A    between atoms: _75  and  _76
REMARK   32  A    between atoms: _80  and  _82
REMARK   33  A    between atoms: _82  and  _83
REMARK   34  A    between atoms: _86  and  _88
REMARK   35  A    between atoms: _88  and  _89
REMARK   36  A    between atoms: _88  and  _91
REMARK   37  A    between atoms: _91  and  _92
REMARK   38  A    between atoms: _95  and  _97
REMARK   39  A    between atoms: _97  and  _98
REMARK   40  A    between atoms: _97  and  _100
REMARK   41  A    between atoms: _100  and  _101
REMARK   42  A    between atoms: _104  and  _106
REMARK   43  A    between atoms: _106  and  _107
REMARK   44  A    between atoms: _109  and  _111
REMARK   45  A    between atoms: _111  and  _112
REMARK   46  A    between atoms: _111  and  _114
REMARK   47  A    between atoms: _114  and  _115
REMARK   48  A    between atoms: _120  and  _122
REMARK   49  A    between atoms: _122  and  _123
REMARK   50  A    between atoms: _122  and  _125
REMARK   51  A    between atoms: _125  and  _126
REMARK   52  A    between atoms: _129  and  _131
REMARK   53  A    between atoms: _131  and  _132
REMARK   54  A    between atoms: _131  and  _134
REMARK   55  A    between atoms: _134  and  _135
REMARK   56  A    between atoms: _135  and  _136
REMARK   57  A    between atoms: _136  and  _137
REMARK   58  A    between atoms: _137  and  _138
REMARK   59  A    between atoms: _142  and  _144
REMARK   60  A    between atoms: _144  and  _145
REMARK   61  A    between atoms: _144  and  _147
REMARK   62  A    between atoms: _147  and  _148
REMARK   63  A    between atoms: _151  and  _153
REMARK   64  A    between atoms: _153  and  _154
REMARK   65  A    between atoms: _153  and  _156
REMARK   66  A    between atoms: _156  and  _157
REMARK   67  A    between atoms: _157  and  _158
REMARK   68  A    between atoms: _158  and  _159
REMARK   69  A    between atoms: _159  and  _160
REMARK   70  A    between atoms: _164  and  _166
REMARK   71  A    between atoms: _166  and  _167
REMARK   72  A    between atoms: _169  and  _171
REMARK   73  A    between atoms: _171  and  _172
REMARK   74  A    between atoms: _171  and  _174
REMARK   75  A    between atoms: _174  and  _175
REMARK   76  A    between atoms: _178  and  _180
REMARK   77  A    between atoms: _180  and  _181
REMARK   78  A    between atoms: _184  and  _186
REMARK   79  A    between atoms: _186  and  _187
REMARK   80  A    between atoms: _186  and  _189
REMARK   81  A    between atoms: _189  and  _190
REMARK   82  A    between atoms: _193  and  _195
REMARK   83  A    between atoms: _195  and  _196
REMARK   84  A    between atoms: _195  and  _198
REMARK   85  A    between atoms: _198  and  _199
REMARK   86  A    between atoms: _199  and  _200
REMARK   87  A    between atoms: _202  and  _204
REMARK   88  A    between atoms: _204  and  _205
REMARK   89  A    between atoms: _204  and  _207
REMARK   90  A    between atoms: _207  and  _208
REMARK   91  A    between atoms: _218  and  _220
REMARK   92  A    between atoms: _220  and  _221
REMARK   93  A    between atoms: _220  and  _223
REMARK   94  A    between atoms: _223  and  _224
REMARK   95  A    between atoms: _227  and  _229
REMARK   96  A    between atoms: _229  and  _230
REMARK   97  A    between atoms: _229  and  _232
REMARK   98  A    between atoms: _232  and  _233
REMARK   99  A    between atoms: _233  and  _234
REMARK  100  A    between atoms: _234  and  _235
REMARK  101  A    between atoms: _235  and  _236
REMARK  102  A    between atoms: _240  and  _242
REMARK  103  A    between atoms: _242  and  _243
REMARK  104  A    between atoms: _242  and  _245
REMARK  105  A    between atoms: _245  and  _246
REMARK  106  A    between atoms: _246  and  _247
REMARK  107  A    between atoms: _247  and  _248
REMARK  108  A    between atoms: _257  and  _259
REMARK  109  A    between atoms: _259  and  _260
REMARK  110  A    between atoms: _262  and  _264
REMARK  111  A    between atoms: _264  and  _265
REMARK  112  A    between atoms: _264  and  _267
REMARK  113  A    between atoms: _267  and  _268
REMARK  114  A    between atoms: _271  and  _273
REMARK  115  A    between atoms: _273  and  _274
REMARK  116  A    between atoms: _273  and  _276
REMARK  117  A    between atoms: _276  and  _277
REMARK  118  A    between atoms: _277  and  _278
REMARK  119  A    between atoms: _278  and  _279
REMARK  120  A    between atoms: _288  and  _290
REMARK  121  A    between atoms: _290  and  _291
REMARK  122  A    between atoms: _290  and  _293
REMARK  123  A    between atoms: _293  and  _294
REMARK  124  A    between atoms: _300  and  _302
REMARK  125  A    between atoms: _302  and  _303
REMARK  126  A    between atoms: _302  and  _305
REMARK  127  A    between atoms: _305  and  _306
REMARK  128  A    between atoms: _309  and  _311
REMARK  129  A    between atoms: _311  and  _312
REMARK  130  A    between atoms: _311  and  _314
REMARK  131  A    between atoms: _314  and  _315
REMARK  132  A    between atoms: _321  and  _323
REMARK  133  A    between atoms: _323  and  _324
REMARK  134  A    between atoms: _323  and  _326
REMARK  135  A    between atoms: _326  and  _327
REMARK  136  A    between atoms: _330  and  _332
REMARK  137  A    between atoms: _332  and  _333
REMARK  138  A    between atoms: _332  and  _335
REMARK  139  A    between atoms: _335  and  _336
REMARK  140  A    between atoms: _339  and  _341
REMARK  141  A    between atoms: _341  and  _342
REMARK  142  A    between atoms: _341  and  _344
REMARK  143  A    between atoms: _344  and  _345
REMARK  144  A    between atoms: _348  and  _350
REMARK  145  A    between atoms: _350  and  _351
REMARK  146  A    between atoms: _350  and  _353
REMARK  147  A    between atoms: _353  and  _354
REMARK  148  A    between atoms: _354  and  _355
REMARK  149  A    between atoms: _355  and  _356
REMARK  150  A    between atoms: _365  and  _367
REMARK  151  A    between atoms: _367  and  _368
REMARK  152  A    between atoms: _367  and  _370
REMARK  153  A    between atoms: _370  and  _371
REMARK  154  A    between atoms: _376  and  _378
REMARK  155  A    between atoms: _378  and  _379
REMARK  156  A    between atoms: _382  and  _384
REMARK  157  A    between atoms: _384  and  _385
REMARK  158  A    between atoms: _384  and  _387
REMARK  159  A    between atoms: _387  and  _388
REMARK  160  A    between atoms: _391  and  _393
REMARK  161  A    between atoms: _393  and  _394
REMARK  162  A    between atoms: _397  and  _399
REMARK  163  A    between atoms: _399  and  _400
REMARK  164  A    between atoms: _399  and  _402
REMARK  165  A    between atoms: _402  and  _403
REMARK  166  A    between atoms: _408  and  _409
REMARK  167  A    between atoms: _411  and  _413
REMARK  168  A    between atoms: _413  and  _414
REMARK  169  A    between atoms: _417  and  _419
REMARK  170  A    between atoms: _419  and  _420
REMARK  171  A    between atoms: _419  and  _422
REMARK  172  A    between atoms: _422  and  _423
REMARK  173  A    between atoms: _426  and  _428
REMARK  174  A    between atoms: _428  and  _429
REMARK  175  A    between atoms: _428  and  _431
REMARK  176  A    between atoms: _431  and  _432
REMARK  177  A    between atoms: _432  and  _433
REMARK  178  A    between atoms: _433  and  _434
REMARK  179  A    between atoms: _434  and  _435
REMARK  180  A    between atoms: _439  and  _441
REMARK  181  A    between atoms: _441  and  _442
REMARK  182  A    between atoms: _441  and  _444
REMARK  183  A    between atoms: _444  and  _445
REMARK  184  A    between atoms: _450  and  _451
REMARK  185  A    between atoms: _453  and  _455
REMARK  186  A    between atoms: _455  and  _456
REMARK  187  A    between atoms: _455  and  _458
REMARK  188  A    between atoms: _458  and  _459
REMARK  189  A    between atoms: _464  and  _466
REMARK  190  A    between atoms: _466  and  _467
REMARK  191  A    between atoms: _469  and  _471
REMARK  192  A    between atoms: _471  and  _472
REMARK  193  A    between atoms: _471  and  _474
REMARK  194  A    between atoms: _474  and  _475
REMARK  195  A    between atoms: _478  and  _480
REMARK  196  A    between atoms: _480  and  _481
REMARK  197  A    between atoms: _480  and  _483
REMARK  198  A    between atoms: _486  and  _488
REMARK  199  A    between atoms: _488  and  _489
REMARK  200  A    between atoms: _488  and  _491
REMARK  201  A    between atoms: _491  and  _492
REMARK  202  A    between atoms: _495  and  _497
REMARK  203  A    between atoms: _497  and  _498
REMARK  204  A    between atoms: _497  and  _500
REMARK  205  A    between atoms: _500  and  _501
REMARK  206  A    between atoms: _507  and  _509
REMARK  207  A    between atoms: _509  and  _510
REMARK  208  A    between atoms: _509  and  _512
REMARK  209  A    between atoms: _512  and  _513
REMARK  210  A    between atoms: _513  and  _514
REMARK  211  A    between atoms: _519  and  _521
REMARK  212  A    between atoms: _521  and  _522
REMARK  213  A    between atoms: _525  and  _527
REMARK  214  A    between atoms: _527  and  _528
REMARK  215  A    between atoms: _531  and  _533
REMARK  216  A    between atoms: _533  and  _534
REMARK  217  A    between atoms: _533  and  _536
REMARK  218  A    between atoms: _536  and  _537
REMARK  219  A    between atoms: _540  and  _542
REMARK  220  A    between atoms: _542  and  _543
REMARK  221  A    between atoms: _542  and  _545
REMARK  222  A    between atoms: _545  and  _546
REMARK  223  A    between atoms: _551  and  _552
REMARK  224  A    between atoms: _554  and  _556
REMARK  225  A    between atoms: _556  and  _557
REMARK  226  A    between atoms: _560  and  _562
REMARK  227  A    between atoms: _562  and  _563
REMARK  228  A    between atoms: _567  and  _568
REMARK  229  A    between atoms: _573  and  _575
REMARK  230  A    between atoms: _575  and  _576
REMARK  231  A    between atoms: _575  and  _578
REMARK  232  A    between atoms: _578  and  _579
REMARK  233  A    between atoms: _585  and  _587
REMARK  234  A    between atoms: _587  and  _588
REMARK  235  A    between atoms: _587  and  _590
REMARK  236  A    between atoms: _590  and  _591
REMARK  237  A    between atoms: _596  and  _597
REMARK  238  A    between atoms: _599  and  _601
REMARK  239  A    between atoms: _601  and  _602
REMARK  240  A    between atoms: _601  and  _604
REMARK  241  A    between atoms: _604  and  _605
REMARK  242  A    between atoms: _605  and  _606
REMARK  243  A    between atoms: _606  and  _607
REMARK  244  A    between atoms: _607  and  _608
REMARK  245  A    between atoms: _612  and  _614
REMARK  246  A    between atoms: _614  and  _615
REMARK  247  A    between atoms: _614  and  _617
REMARK                            x       y       z     vdW  Elec       q    Type
REMARK                         _______ _______ _______ _____ _____    ______ ____
ROOT
ATOM      1  CA  ARG A   2       5.808 -15.481  21.784  0.00  0.00    +0.137 C 
ENDROOT
BRANCH   1   3
ATOM      2  C   ILE A   1       3.957 -13.915  21.501  0.00  0.00    +0.238 C 
ATOM      3  N   ARG A   2       4.413 -15.078  21.959  0.00  0.00    -0.298 N 
ATOM      4  H   ARG A   2       3.760 -15.718  22.455  0.00  0.00    +0.150 HD
ATOM      5  O   ILE A   1       4.633 -13.155  20.806  0.00  0.00    -0.274 OA
BRANCH   2   6
ATOM      6  CA  ILE A   1       2.513 -13.563  21.856  0.00  0.00    +0.145 C 
BRANCH   6   7
ATOM      7  N   ILE A   1       2.047 -14.310  23.032  0.00  0.00    -0.238 NA
ATOM      8  H   ILE A   1       2.595 -14.247  23.914  0.00  0.00    +0.142 HD
ENDBRANCH   6   7
BRANCH   6   9
ATOM      9  CB  ILE A   1       2.383 -12.034  22.050  0.00  0.00    +0.025 C 
ATOM     10  CG2 ILE A   1       0.923 -11.646  22.259  0.00  0.00    +0.002 C 
BRANCH   9  11
ATOM     11  CG1 ILE A   1       3.266 -11.552  23.209  0.00  0.00    +0.002 C 
ATOM     12  CD1 ILE A   1       2.895 -10.168  23.772  0.00  0.00    +0.000 C 
ENDBRANCH   9  11
ENDBRANCH   6   9
ENDBRANCH   2   6
ENDBRANCH   1   3
BRANCH   1  13
ATOM     13  C   ARG A   2       6.166 -15.752  20.325  0.00  0.00    +0.227 C 
ATOM     14  O   ARG A   2       7.227 -15.345  19.851  0.00  0.00    -0.286 OA
ENDBRANCH   1  13
BRANCH   1  15
ATOM     15  CB  ARG A   2       6.116 -16.719  22.624  0.00  0.00    +0.031 C 
BRANCH  15  16
ATOM     16  CG  ARG A   2       5.843 -16.507  24.092  0.00  0.00    +0.045 C 
BRANCH  16  17
ATOM     17  CD  ARG A   2       6.680 -17.423  24.973  0.00  0.00    +0.174 C 
BRANCH  17  18
ATOM     18  NE  ARG A   2       6.221 -17.340  26.361  0.00  0.00    -0.265 N 
ATOM     19  CZ  ARG A   2       5.837 -18.374  27.114  0.00  0.00    +0.342 C 
ATOM     20  NH2 ARG A   2       5.428 -18.158  28.364  0.00  0.00    -0.292 N 
ATOM     21 HH21 ARG A   2       5.127 -18.957  28.958  0.00  0.00    +0.255 HD
ATOM     22 HH22 ARG A   2       5.410 -17.191  28.745  0.00  0.00    +0.255 HD
ATOM     23  NH1 ARG A   2       5.883 -19.624  26.648  0.00  0.00    -0.292 N 
ATOM     24 HH11 ARG A   2       5.579 -20.415  27.251  0.00  0.00    +0.255 HD
ATOM     25 HH12 ARG A   2       6.223 -19.807  25.682  0.00  0.00    +0.255 HD
ATOM     26  HE  ARG A   2       6.192 -16.396  26.797  0.00  0.00    +0.259 HD
ENDBRANCH  17  18
ENDBRANCH  16  17
ENDBRANCH  15  16
ENDBRANCH   1  15
TORSDOF 10
REMARK  Name = ../refined-set-2016/2evl/2evl_pocket.pdb
REMARK  247 active torsions:
REMARK  status: ('A' for Active; 'I' for Inactive)
REMARK    1  A    between atoms: _1  and  _3
REMARK    2  A    between atoms: _3  and  _4
REMARK    3  A    between atoms: _3  and  _6
REMARK    4  A    between atoms: _6  and  _7
REMARK    5  A    between atoms: _13  and  _15
REMARK    6  A    between atoms: _15  and  _16
REMARK    7  A    between atoms: _15  and  _18
REMARK    8  A    between atoms: _18  and  _19
REMARK    9  A    between atoms: _22  and  _24
REMARK   10  A    between atoms: _24  and  _25
REMARK   11  A    between atoms: _24  and  _27
REMARK   12  A    between atoms: _30  and  _32
REMARK   13  A    between atoms: _32  and  _33
REMARK   14  A    between atoms: _32  and  _35
REMARK   15  A    between atoms: _35  and  _36
REMARK   16  A    between atoms: _42  and  _44
REMARK   17  A    between atoms: _44  and  _45
REMARK   18  A    between atoms: _44  and  _47
REMARK   19  A    between atoms: _47  and  _48
REMARK   20  A    between atoms: _52  and  _53
REMARK   21  A    between atoms: _58  and  _60
REMARK   22  A    between atoms: _60  and  _61
REMARK   23  A    between atoms: _60  and  _63
REMARK   24  A    between atoms: _63  and  _64
REMARK   25  A    between atoms: _67  and  _69
REMARK   26  A    between atoms: _69  and  _70
REMARK   27  A    between atoms: _69  and  _72
REMARK   28  A    between atoms: _72  and  _73
REMARK   29  A    between atoms: _73  and  _74
REMARK   30  A    between atoms: _74  and  _75
REMARK   31  A    between atoms: _75  and  _76
REMARK   32  A    between atoms: _80  and  _82
REMARK   33  A    between atoms: _82  and  _83
REMARK   34  A    between atoms: _86  and  _88
REMARK   35  A    between atoms: _88  and  _89
REMARK   36  A    between atoms: _88  and  _91
REMARK   37  A    between atoms: _91  and  _92
REMARK   38  A    between atoms: _95  and  _97
REMARK   39  A    between atoms: _97  and  _98
REMARK   40  A    between atoms: _97  and  _100
REMARK   41  A    between atoms: _100  and  _101
REMARK   42  A    between atoms: _104  and  _106
REMARK   43  A    between atoms: _106  and  _107
REMARK   44  A    between atoms: _109  and  _111
REMARK   45  A    between atoms: _111  and  _112
REMARK   46  A    between atoms: _111  and  _114
REMARK   47  A    between atoms: _114  and  _115
REMARK   48  A    between atoms: _120  and  _122
REMARK   49  A    between atoms: _122  and  _123
REMARK   50  A    between atoms: _122  and  _125
REMARK   51  A    between atoms: _125  and  _126
REMARK   52  A    between atoms: _129  and  _131
REMARK   53  A    between atoms: _131  and  _132
REMARK   54  A    between atoms: _131  and  _134
REMARK   55  A    between atoms: _134  and  _135
REMARK   56  A    between atoms: _135  and  _136
REMARK   57  A    between atoms: _136  and  _137
REMARK   58  A    between atoms: _137  and  _138
REMARK   59  A    between atoms: _142  and  _144
REMARK   60  A    between atoms: _144  and  _145
REMARK   61  A    between atoms: _144  and  _147
REMARK   62  A    between atoms: _147  and  _148
REMARK   63  A    between atoms: _151  and  _153
REMARK   64  A    between atoms: _153  and  _154
REMARK   65  A    between atoms: _153  and  _156
REMARK   66  A    between atoms: _156  and  _157
REMARK   67  A    between atoms: _157  and  _158
REMARK   68  A    between atoms: _158  and  _159
REMARK   69  A    between atoms: _159  and  _160
REMARK   70  A    between atoms: _164  and  _166
REMARK   71  A    between atoms: _166  and  _167
REMARK   72  A    between atoms: _169  and  _171
REMARK   73  A    between atoms: _171  and  _172
REMARK   74  A    between atoms: _171  and  _174
REMARK   75  A    between atoms: _174  and  _175
REMARK   76  A    between atoms: _178  and  _180
REMARK   77  A    between atoms: _180  and  _181
REMARK   78  A    between atoms: _184  and  _186
REMARK   79  A    between atoms: _186  and  _187
REMARK   80  A    between atoms: _186  and  _189
REMARK   81  A    between atoms: _189  and  _190
REMARK   82  A    between atoms: _193  and  _195
REMARK   83  A    between atoms: _195  and  _196
REMARK   84  A    between atoms: _195  and  _198
REMARK   85  A    between atoms: _198  and  _199
REMARK   86  A    between atoms: _199  and  _200
REMARK   87  A    between atoms: _202  and  _204
REMARK   88  A    between atoms: _204  and  _205
REMARK   89  A    between atoms: _204  and  _207
REMARK   90  A    between atoms: _207  and  _208
REMARK   91  A    between atoms: _218  and  _220
REMARK   92  A    between atoms: _220  and  _221
REMARK   93  A    between atoms: _220  and  _223
REMARK   94  A    between atoms: _223  and  _224
REMARK   95  A    between atoms: _227  and  _229
REMARK   96  A    between atoms: _229  and  _230
REMARK   97  A    between atoms: _229  and  _232
REMARK   98  A    between atoms: _232  and  _233
REMARK   99  A    between atoms: _233  and  _234
REMARK  100  A    between atoms: _234  and  _235
REMARK  101  A    between atoms: _235  and  _236
REMARK  102  A    between atoms: _240  and  _242
REMARK  103  A    between atoms: _242  and  _243
REMARK  104  A    between atoms: _242  and  _245
REMARK  105  A    between atoms: _245  and  _246
REMARK  106  A    between atoms: _246  and  _247
REMARK  107  A    between atoms: _247  and  _248
REMARK  108  A    between atoms: _257  and  _259
REMARK  109  A    between atoms: _259  and  _260
REMARK  110  A    between atoms: _262  and  _264
REMARK  111  A    between atoms: _264  and  _265
REMARK  112  A    between atoms: _264  and  _267
REMARK  113  A    between atoms: _267  and  _268
REMARK  114  A    between atoms: _271  and  _273
REMARK  115  A    between atoms: _273  and  _274
REMARK  116  A    between atoms: _273  and  _276
REMARK  117  A    between atoms: _276  and  _277
REMARK  118  A    between atoms: _277  and  _278
REMARK  119  A    between atoms: _278  and  _279
REMARK  120  A    between atoms: _288  and  _290
REMARK  121  A    between atoms: _290  and  _291
REMARK  122  A    between atoms: _290  and  _293
REMARK  123  A    between atoms: _293  and  _294
REMARK  124  A    between atoms: _300  and  _302
REMARK  125  A    between atoms: _302  and  _303
REMARK  126  A    between atoms: _302  and  _305
REMARK  127  A    between atoms: _305  and  _306
REMARK  128  A    between atoms: _309  and  _311
REMARK  129  A    between atoms: _311  and  _312
REMARK  130  A    between atoms: _311  and  _314
REMARK  131  A    between atoms: _314  and  _315
REMARK  132  A    between atoms: _321  and  _323
REMARK  133  A    between atoms: _323  and  _324
REMARK  134  A    between atoms: _323  and  _326
REMARK  135  A    between atoms: _326  and  _327
REMARK  136  A    between atoms: _330  and  _332
REMARK  137  A    between atoms: _332  and  _333
REMARK  138  A    between atoms: _332  and  _335
REMARK  139  A    between atoms: _335  and  _336
REMARK  140  A    between atoms: _339  and  _341
REMARK  141  A    between atoms: _341  and  _342
REMARK  142  A    between atoms: _341  and  _344
REMARK  143  A    between atoms: _344  and  _345
REMARK  144  A    between atoms: _348  and  _350
REMARK  145  A    between atoms: _350  and  _351
REMARK  146  A    between atoms: _350  and  _353
REMARK  147  A    between atoms: _353  and  _354
REMARK  148  A    between atoms: _354  and  _355
REMARK  149  A    between atoms: _355  and  _356
REMARK  150  A    between atoms: _365  and  _367
REMARK  151  A    between atoms: _367  and  _368
REMARK  152  A    between atoms: _367  and  _370
REMARK  153  A    between atoms: _370  and  _371
REMARK  154  A    between atoms: _376  and  _378
REMARK  155  A    between atoms: _378  and  _379
REMARK  156  A    between atoms: _382  and  _384
REMARK  157  A    between atoms: _384  and  _385
REMARK  158  A    between atoms: _384  and  _387
REMARK  159  A    between atoms: _387  and  _388
REMARK  160  A    between atoms: _391  and  _393
REMARK  161  A    between atoms: _393  and  _394
REMARK  162  A    between atoms: _397  and  _399
REMARK  163  A    between atoms: _399  and  _400
REMARK  164  A    between atoms: _399  and  _402
REMARK  165  A    between atoms: _402  and  _403
REMARK  166  A    between atoms: _408  and  _409
REMARK  167  A    between atoms: _411  and  _413
REMARK  168  A    between atoms: _413  and  _414
REMARK  169  A    between atoms: _417  and  _419
REMARK  170  A    between atoms: _419  and  _420
REMARK  171  A    between atoms: _419  and  _422
REMARK  172  A    between atoms: _422  and  _423
REMARK  173  A    between atoms: _426  and  _428
REMARK  174  A    between atoms: _428  and  _429
REMARK  175  A    between atoms: _428  and  _431
REMARK  176  A    between atoms: _431  and  _432
REMARK  177  A    between atoms: _432  and  _433
REMARK  178  A    between atoms: _433  and  _434
REMARK  179  A    between atoms: _434  and  _435
REMARK  180  A    between atoms: _439  and  _441
REMARK  181  A    between atoms: _441  and  _442
REMARK  182  A    between atoms: _441  and  _444
REMARK  183  A    between atoms: _444  and  _445
REMARK  184  A    between atoms: _450  and  _451
REMARK  185  A    between atoms: _453  and  _455
REMARK  186  A    between atoms: _455  and  _456
REMARK  187  A    between atoms: _455  and  _458
REMARK  188  A    between atoms: _458  and  _459
REMARK  189  A    between atoms: _464  and  _466
REMARK  190  A    between atoms: _466  and  _467
REMARK  191  A    between atoms: _469  and  _471
REMARK  192  A    between atoms: _471  and  _472
REMARK  193  A    between atoms: _471  and  _474
REMARK  194  A    between atoms: _474  and  _475
REMARK  195  A    between atoms: _478  and  _480
REMARK  196  A    between atoms: _480  and  _481
REMARK  197  A    between atoms: _480  and  _483
REMARK  198  A    between atoms: _486  and  _488
REMARK  199  A    between atoms: _488  and  _489
REMARK  200  A    between atoms: _488  and  _491
REMARK  201  A    between atoms: _491  and  _492
REMARK  202  A    between atoms: _495  and  _497
REMARK  203  A    between atoms: _497  and  _498
REMARK  204  A    between atoms: _497  and  _500
REMARK  205  A    between atoms: _500  and  _501
REMARK  206  A    between atoms: _507  and  _509
REMARK  207  A    between atoms: _509  and  _510
REMARK  208  A    between atoms: _509  and  _512
REMARK  209  A    between atoms: _512  and  _513
REMARK  210  A    between atoms: _513  and  _514
REMARK  211  A    between atoms: _519  and  _521
REMARK  212  A    between atoms: _521  and  _522
REMARK  213  A    between atoms: _525  and  _527
REMARK  214  A    between atoms: _527  and  _528
REMARK  215  A    between atoms: _531  and  _533
REMARK  216  A    between atoms: _533  and  _534
REMARK  217  A    between atoms: _533  and  _536
REMARK  218  A    between atoms: _536  and  _537
REMARK  219  A    between atoms: _540  and  _542
REMARK  220  A    between atoms: _542  and  _543
REMARK  221  A    between atoms: _542  and  _545
REMARK  222  A    between atoms: _545  and  _546
REMARK  223  A    between atoms: _551  and  _552
REMARK  224  A    between atoms: _554  and  _556
REMARK  225  A    between atoms: _556  and  _557
REMARK  226  A    between atoms: _560  and  _562
REMARK  227  A    between atoms: _562  and  _563
REMARK  228  A    between atoms: _567  and  _568
REMARK  229  A    between atoms: _573  and  _575
REMARK  230  A    between atoms: _575  and  _576
REMARK  231  A    between atoms: _575  and  _578
REMARK  232  A    between atoms: _578  and  _579
REMARK  233  A    between atoms: _585  and  _587
REMARK  234  A    between atoms: _587  and  _588
REMARK  235  A    between atoms: _587  and  _590
REMARK  236  A    between atoms: _590  and  _591
REMARK  237  A    between atoms: _596  and  _597
REMARK  238  A    between atoms: _599  and  _601
REMARK  239  A    between atoms: _601  and  _602
REMARK  240  A    between atoms: _601  and  _604
REMARK  241  A    between atoms: _604  and  _605
REMARK  242  A    between atoms: _605  and  _606
REMARK  243  A    between atoms: _606  and  _607
REMARK  244  A    between atoms: _607  and  _608
REMARK  245  A    between atoms: _612  and  _614
REMARK  246  A    between atoms: _614  and  _615
REMARK  247  A    between atoms: _614  and  _617
REMARK                            x       y       z     vdW  Elec       q    Type
REMARK                         _______ _______ _______ _____ _____    ______ ____
ROOT
ATOM      1  C   ASN A   1       5.917 -12.378  17.250  0.00  0.00    +0.239 C 
ATOM      2  N   ALA A   2       6.375 -12.291  18.496  0.00  0.00    -0.297 N 
ATOM      3  H   ALA A   2       5.807 -12.707  19.261  0.00  0.00    +0.150 HD
ATOM      4  O   ASN A   1       6.476 -11.872  16.287  0.00  0.00    -0.274 OA
ENDROOT
BRANCH   2   5
ATOM      5  CA  ALA A   2       7.631 -11.642  18.841  0.00  0.00    +0.149 C 
ATOM      6  CB  ALA A   2       7.791 -11.634  20.340  0.00  0.00    +0.031 C 
BRANCH   5   7
ATOM      7  C   ALA A   2       8.824 -12.318  18.191  0.00  0.00    +0.241 C 
ATOM      8  N   THR A   3       8.838 -13.648  18.242  0.00  0.00    -0.296 N 
ATOM      9  H   THR A   3       8.054 -14.140  18.716  0.00  0.00    +0.150 HD
ATOM     10  O   ALA A   2       9.706 -11.651  17.634  0.00  0.00    -0.273 OA
BRANCH   8  11
ATOM     11  CA  THR A   3       9.917 -14.441  17.655  0.00  0.00    +0.164 C 
BRANCH  11  12
ATOM     12  CB  THR A   3       9.749 -15.945  18.020  0.00  0.00    +0.136 C 
ATOM     13  CG2 THR A   3      10.737 -16.797  17.292  0.00  0.00    +0.034 C 
BRANCH  12  14
ATOM     14  OG1 THR A   3       9.953 -16.118  19.431  0.00  0.00    -0.382 OA
ATOM     15  HG1 THR A   3       9.287 -15.580  19.928  0.00  0.00    +0.210 HD
ENDBRANCH  12  14
ENDBRANCH  11  12
BRANCH  11  16
ATOM     16  C   THR A   3      10.002 -14.222  16.141  0.00  0.00    +0.229 C 
ATOM     17  O   THR A   3      11.082 -14.046  15.607  0.00  0.00    -0.286 OA
ENDBRANCH  11  16
ENDBRANCH   8  11
ENDBRANCH   5   7
ENDBRANCH   2   5
BRANCH   1  18
ATOM     18  CA  ASN A   1       4.630 -13.197  17.083  0.00  0.00    +0.154 C 
BRANCH  18  19
ATOM     19  N   ASN A   1       4.700 -14.486  17.775  0.00  0.00    -0.238 NA
ATOM     20  H   ASN A   1       4.104 -14.638  18.614  0.00  0.00    +0.142 HD
ENDBRANCH  18  19
BRANCH  18  21
ATOM     21  CB  ASN A   1       3.436 -12.403  17.609  0.00  0.00    +0.111 C 
BRANCH  21  22
ATOM     22  CG  ASN A   1       2.137 -13.197  17.549  0.00  0.00    +0.221 C 
ATOM     23  ND2 ASN A   1       1.681 -13.649  18.700  0.00  0.00    -0.329 N 
ATOM     24 HD21 ASN A   1       2.200 -13.451  19.579  0.00  0.00    +0.145 HD
ATOM     25 HD22 ASN A   1       0.802 -14.204  18.729  0.00  0.00    +0.145 HD
ATOM     26  OD1 ASN A   1       1.561 -13.403  16.476  0.00  0.00    -0.275 OA
ENDBRANCH  21  22
ENDBRANCH  18  21
ENDBRANCH   1  18
TORSDOF 10
REMARK  Name = ../refined-set-2016/2evl/2evl_pocket.pdb
REMARK  247 active torsions:
REMARK  status: ('A' for Active; 'I' for Inactive)
REMARK    1  A    between atoms: _1  and  _3
REMARK    2  A    between atoms: _3  and  _4
REMARK    3  A    between atoms: _3  and  _6
REMARK    4  A    between atoms: _6  and  _7
REMARK    5  A    between atoms: _13  and  _15
REMARK    6  A    between atoms: _15  and  _16
REMARK    7  A    between atoms: _15  and  _18
REMARK    8  A    between atoms: _18  and  _19
REMARK    9  A    between atoms: _22  and  _24
REMARK   10  A    between atoms: _24  and  _25
REMARK   11  A    between atoms: _24  and  _27
REMARK   12  A    between atoms: _30  and  _32
REMARK   13  A    between atoms: _32  and  _33
REMARK   14  A    between atoms: _32  and  _35
REMARK   15  A    between atoms: _35  and  _36
REMARK   16  A    between atoms: _42  and  _44
REMARK   17  A    between atoms: _44  and  _45
REMARK   18  A    between atoms: _44  and  _47
REMARK   19  A    between atoms: _47  and  _48
REMARK   20  A    between atoms: _52  and  _53
REMARK   21  A    between atoms: _58  and  _60
REMARK   22  A    between atoms: _60  and  _61
REMARK   23  A    between atoms: _60  and  _63
REMARK   24  A    between atoms: _63  and  _64
REMARK   25  A    between atoms: _67  and  _69
REMARK   26  A    between atoms: _69  and  _70
REMARK   27  A    between atoms: _69  and  _72
REMARK   28  A    between atoms: _72  and  _73
REMARK   29  A    between atoms: _73  and  _74
REMARK   30  A    between atoms: _74  and  _75
REMARK   31  A    between atoms: _75  and  _76
REMARK   32  A    between atoms: _80  and  _82
REMARK   33  A    between atoms: _82  and  _83
REMARK   34  A    between atoms: _86  and  _88
REMARK   35  A    between atoms: _88  and  _89
REMARK   36  A    between atoms: _88  and  _91
REMARK   37  A    between atoms: _91  and  _92
REMARK   38  A    between atoms: _95  and  _97
REMARK   39  A    between atoms: _97  and  _98
REMARK   40  A    between atoms: _97  and  _100
REMARK   41  A    between atoms: _100  and  _101
REMARK   42  A    between atoms: _104  and  _106
REMARK   43  A    between atoms: _106  and  _107
REMARK   44  A    between atoms: _109  and  _111
REMARK   45  A    between atoms: _111  and  _112
REMARK   46  A    between atoms: _111  and  _114
REMARK   47  A    between atoms: _114  and  _115
REMARK   48  A    between atoms: _120  and  _122
REMARK   49  A    between atoms: _122  and  _123
REMARK   50  A    between atoms: _122  and  _125
REMARK   51  A    between atoms: _125  and  _126
REMARK   52  A    between atoms: _129  and  _131
REMARK   53  A    between atoms: _131  and  _132
REMARK   54  A    between atoms: _131  and  _134
REMARK   55  A    between atoms: _134  and  _135
REMARK   56  A    between atoms: _135  and  _136
REMARK   57  A    between atoms: _136  and  _137
REMARK   58  A    between atoms: _137  and  _138
REMARK   59  A    between atoms: _142  and  _144
REMARK   60  A    between atoms: _144  and  _145
REMARK   61  A    between atoms: _144  and  _147
REMARK   62  A    between atoms: _147  and  _148
REMARK   63  A    between atoms: _151  and  _153
REMARK   64  A    between atoms: _153  and  _154
REMARK   65  A    between atoms: _153  and  _156
REMARK   66  A    between atoms: _156  and  _157
REMARK   67  A    between atoms: _157  and  _158
REMARK   68  A    between atoms: _158  and  _159
REMARK   69  A    between atoms: _159  and  _160
REMARK   70  A    between atoms: _164  and  _166
REMARK   71  A    between atoms: _166  and  _167
REMARK   72  A    between atoms: _169  and  _171
REMARK   73  A    between atoms: _171  and  _172
REMARK   74  A    between atoms: _171  and  _174
REMARK   75  A    between atoms: _174  and  _175
REMARK   76  A    between atoms: _178  and  _180
REMARK   77  A    between atoms: _180  and  _181
REMARK   78  A    between atoms: _184  and  _186
REMARK   79  A    between atoms: _186  and  _187
REMARK   80  A    between atoms: _186  and  _189
REMARK   81  A    between atoms: _189  and  _190
REMARK   82  A    between atoms: _193  and  _195
REMARK   83  A    between atoms: _195  and  _196
REMARK   84  A    between atoms: _195  and  _198
REMARK   85  A    between atoms: _198  and  _199
REMARK   86  A    between atoms: _199  and  _200
REMARK   87  A    between atoms: _202  and  _204
REMARK   88  A    between atoms: _204  and  _205
REMARK   89  A    between atoms: _204  and  _207
REMARK   90  A    between atoms: _207  and  _208
REMARK   91  A    between atoms: _218  and  _220
REMARK   92  A    between atoms: _220  and  _221
REMARK   93  A    between atoms: _220  and  _223
REMARK   94  A    between atoms: _223  and  _224
REMARK   95  A    between atoms: _227  and  _229
REMARK   96  A    between atoms: _229  and  _230
REMARK   97  A    between atoms: _229  and  _232
REMARK   98  A    between atoms: _232  and  _233
REMARK   99  A    between atoms: _233  and  _234
REMARK  100  A    between atoms: _234  and  _235
REMARK  101  A    between atoms: _235  and  _236
REMARK  102  A    between atoms: _240  and  _242
REMARK  103  A    between atoms: _242  and  _243
REMARK  104  A    between atoms: _242  and  _245
REMARK  105  A    between atoms: _245  and  _246
REMARK  106  A    between atoms: _246  and  _247
REMARK  107  A    between atoms: _247  and  _248
REMARK  108  A    between atoms: _257  and  _259
REMARK  109  A    between atoms: _259  and  _260
REMARK  110  A    between atoms: _262  and  _264
REMARK  111  A    between atoms: _264  and  _265
REMARK  112  A    between atoms: _264  and  _267
REMARK  113  A    between atoms: _267  and  _268
REMARK  114  A    between atoms: _271  and  _273
REMARK  115  A    between atoms: _273  and  _274
REMARK  116  A    between atoms: _273  and  _276
REMARK  117  A    between atoms: _276  and  _277
REMARK  118  A    between atoms: _277  and  _278
REMARK  119  A    between atoms: _278  and  _279
REMARK  120  A    between atoms: _288  and  _290
REMARK  121  A    between atoms: _290  and  _291
REMARK  122  A    between atoms: _290  and  _293
REMARK  123  A    between atoms: _293  and  _294
REMARK  124  A    between atoms: _300  and  _302
REMARK  125  A    between atoms: _302  and  _303
REMARK  126  A    between atoms: _302  and  _305
REMARK  127  A    between atoms: _305  and  _306
REMARK  128  A    between atoms: _309  and  _311
REMARK  129  A    between atoms: _311  and  _312
REMARK  130  A    between atoms: _311  and  _314
REMARK  131  A    between atoms: _314  and  _315
REMARK  132  A    between atoms: _321  and  _323
REMARK  133  A    between atoms: _323  and  _324
REMARK  134  A    between atoms: _323  and  _326
REMARK  135  A    between atoms: _326  and  _327
REMARK  136  A    between atoms: _330  and  _332
REMARK  137  A    between atoms: _332  and  _333
REMARK  138  A    between atoms: _332  and  _335
REMARK  139  A    between atoms: _335  and  _336
REMARK  140  A    between atoms: _339  and  _341
REMARK  141  A    between atoms: _341  and  _342
REMARK  142  A    between atoms: _341  and  _344
REMARK  143  A    between atoms: _344  and  _345
REMARK  144  A    between atoms: _348  and  _350
REMARK  145  A    between atoms: _350  and  _351
REMARK  146  A    between atoms: _350  and  _353
REMARK  147  A    between atoms: _353  and  _354
REMARK  148  A    between atoms: _354  and  _355
REMARK  149  A    between atoms: _355  and  _356
REMARK  150  A    between atoms: _365  and  _367
REMARK  151  A    between atoms: _367  and  _368
REMARK  152  A    between atoms: _367  and  _370
REMARK  153  A    between atoms: _370  and  _371
REMARK  154  A    between atoms: _376  and  _378
REMARK  155  A    between atoms: _378  and  _379
REMARK  156  A    between atoms: _382  and  _384
REMARK  157  A    between atoms: _384  and  _385
REMARK  158  A    between atoms: _384  and  _387
REMARK  159  A    between atoms: _387  and  _388
REMARK  160  A    between atoms: _391  and  _393
REMARK  161  A    between atoms: _393  and  _394
REMARK  162  A    between atoms: _397  and  _399
REMARK  163  A    between atoms: _399  and  _400
REMARK  164  A    between atoms: _399  and  _402
REMARK  165  A    between atoms: _402  and  _403
REMARK  166  A    between atoms: _408  and  _409
REMARK  167  A    between atoms: _411  and  _413
REMARK  168  A    between atoms: _413  and  _414
REMARK  169  A    between atoms: _417  and  _419
REMARK  170  A    between atoms: _419  and  _420
REMARK  171  A    between atoms: _419  and  _422
REMARK  172  A    between atoms: _422  and  _423
REMARK  173  A    between atoms: _426  and  _428
REMARK  174  A    between atoms: _428  and  _429
REMARK  175  A    between atoms: _428  and  _431
REMARK  176  A    between atoms: _431  and  _432
REMARK  177  A    between atoms: _432  and  _433
REMARK  178  A    between atoms: _433  and  _434
REMARK  179  A    between atoms: _434  and  _435
REMARK  180  A    between atoms: _439  and  _441
REMARK  181  A    between atoms: _441  and  _442
REMARK  182  A    between atoms: _441  and  _444
REMARK  183  A    between atoms: _444  and  _445
REMARK  184  A    between atoms: _450  and  _451
REMARK  185  A    between atoms: _453  and  _455
REMARK  186  A    between atoms: _455  and  _456
REMARK  187  A    between atoms: _455  and  _458
REMARK  188  A    between atoms: _458  and  _459
REMARK  189  A    between atoms: _464  and  _466
REMARK  190  A    between atoms: _466  and  _467
REMARK  191  A    between atoms: _469  and  _471
REMARK  192  A    between atoms: _471  and  _472
REMARK  193  A    between atoms: _471  and  _474
REMARK  194  A    between atoms: _474  and  _475
REMARK  195  A    between atoms: _478  and  _480
REMARK  196  A    between atoms: _480  and  _481
REMARK  197  A    between atoms: _480  and  _483
REMARK  198  A    between atoms: _486  and  _488
REMARK  199  A    between atoms: _488  and  _489
REMARK  200  A    between atoms: _488  and  _491
REMARK  201  A    between atoms: _491  and  _492
REMARK  202  A    between atoms: _495  and  _497
REMARK  203  A    between atoms: _497  and  _498
REMARK  204  A    between atoms: _497  and  _500
REMARK  205  A    between atoms: _500  and  _501
REMARK  206  A    between atoms: _507  and  _509
REMARK  207  A    between atoms: _509  and  _510
REMARK  208  A    between atoms: _509  and  _512
REMARK  209  A    between atoms: _512  and  _513
REMARK  210  A    between atoms: _513  and  _514
REMARK  211  A    between atoms: _519  and  _521
REMARK  212  A    between atoms: _521  and  _522
REMARK  213  A    between atoms: _525  and  _527
REMARK  214  A    between atoms: _527  and  _528
REMARK  215  A    between atoms: _531  and  _533
REMARK  216  A    between atoms: _533  and  _534
REMARK  217  A    between atoms: _533  and  _536
REMARK  218  A    between atoms: _536  and  _537
REMARK  219  A    between atoms: _540  and  _542
REMARK  220  A    between atoms: _542  and  _543
REMARK  221  A    between atoms: _542  and  _545
REMARK  222  A    between atoms: _545  and  _546
REMARK  223  A    between atoms: _551  and  _552
REMARK  224  A    between atoms: _554  and  _556
REMARK  225  A    between atoms: _556  and  _557
REMARK  226  A    between atoms: _560  and  _562
REMARK  227  A    between atoms: _562  and  _563
REMARK  228  A    between atoms: _567  and  _568
REMARK  229  A    between atoms: _573  and  _575
REMARK  230  A    between atoms: _575  and  _576
REMARK  231  A    between atoms: _575  and  _578
REMARK  232  A    between atoms: _578  and  _579
REMARK  233  A    between atoms: _585  and  _587
REMARK  234  A    between atoms: _587  and  _588
REMARK  235  A    between atoms: _587  and  _590
REMARK  236  A    between atoms: _590  and  _591
REMARK  237  A    between atoms: _596  and  _597
REMARK  238  A    between atoms: _599  and  _601
REMARK  239  A    between atoms: _601  and  _602
REMARK  240  A    between atoms: _601  and  _604
REMARK  241  A    between atoms: _604  and  _605
REMARK  242  A    between atoms: _605  and  _606
REMARK  243  A    between atoms: _606  and  _607
REMARK  244  A    between atoms: _607  and  _608
REMARK  245  A    between atoms: _612  and  _614
REMARK  246  A    between atoms: _614  and  _615
REMARK  247  A    between atoms: _614  and  _617
REMARK                            x       y       z     vdW  Elec       q    Type
REMARK                         _______ _______ _______ _____ _____    ______ ____
ROOT
ATOM      1  CA  TYR A   2      12.873 -10.716  15.900  0.00  0.00    +0.141 C 
ENDROOT
BRANCH   1   3
ATOM      2  C   ALA A   1      10.964  -9.988  14.557  0.00  0.00    +0.238 C 
ATOM      3  N   TYR A   2      11.446 -10.685  15.579  0.00  0.00    -0.298 N 
ATOM      4  H   TYR A   2      10.786 -11.228  16.172  0.00  0.00    +0.150 HD
ATOM      5  O   ALA A   1      11.669  -9.335  13.790  0.00  0.00    -0.274 OA
BRANCH   2   6
ATOM      6  CA  ALA A   1       9.459 -10.097  14.337  0.00  0.00    +0.145 C 
ATOM      7  CB  ALA A   1       8.714  -9.213  15.295  0.00  0.00    +0.028 C 
BRANCH   6   8
ATOM      8  N   ALA A   1       9.008 -11.484  14.481  0.00  0.00    -0.238 NA
ATOM      9  H   ALA A   1       8.284 -11.702  15.195  0.00  0.00    +0.142 HD
ENDBRANCH   6   8
ENDBRANCH   2   6
ENDBRANCH   1   3
BRANCH   1  10
ATOM     10  C   TYR A   2      13.668 -11.339  14.769  0.00  0.00    +0.227 C 
ATOM     11  O   TYR A   2      14.684 -10.781  14.336  0.00  0.00    -0.286 OA
ENDBRANCH   1  10
BRANCH   1  12
ATOM     12  CB  TYR A   2      13.103 -11.479  17.194  0.00  0.00    +0.054 C 
BRANCH  12  13
ATOM     13  CG  TYR A   2      14.546 -11.494  17.629  0.00  0.00    -0.020 A 
ATOM     14  CD2 TYR A   2      15.182 -10.324  18.042  0.00  0.00    -0.001 A 
ATOM     15  CE2 TYR A   2      16.530 -10.336  18.436  0.00  0.00    +0.036 A 
ATOM     16  CZ  TYR A   2      17.228 -11.535  18.446  0.00  0.00    +0.134 A 
ATOM     17  CE1 TYR A   2      16.608 -12.714  18.059  0.00  0.00    +0.036 A 
ATOM     18  CD1 TYR A   2      15.279 -12.690  17.646  0.00  0.00    -0.001 A 
BRANCH  16  19
ATOM     19  OH  TYR A   2      18.534 -11.572  18.842  0.00  0.00    -0.506 OA
ATOM     20  HH  TYR A   2      18.830 -10.659  19.085  0.00  0.00    +0.292 HD
ENDBRANCH  16  19
ENDBRANCH  12  13
ENDBRANCH   1  12
TORSDOF 7
REMARK  Name = ../refined-set-2016/2evl/2evl_pocket.pdb
REMARK  247 active torsions:
REMARK  status: ('A' for Active; 'I' for Inactive)
REMARK    1  A    between atoms: _1  and  _3
REMARK    2  A    between atoms: _3  and  _4
REMARK    3  A    between atoms: _3  and  _6
REMARK    4  A    between atoms: _6  and  _7
REMARK    5  A    between atoms: _13  and  _15
REMARK    6  A    between atoms: _15  and  _16
REMARK    7  A    between atoms: _15  and  _18
REMARK    8  A    between atoms: _18  and  _19
REMARK    9  A    between atoms: _22  and  _24
REMARK   10  A    between atoms: _24  and  _25
REMARK   11  A    between atoms: _24  and  _27
REMARK   12  A    between atoms: _30  and  _32
REMARK   13  A    between atoms: _32  and  _33
REMARK   14  A    between atoms: _32  and  _35
REMARK   15  A    between atoms: _35  and  _36
REMARK   16  A    between atoms: _42  and  _44
REMARK   17  A    between atoms: _44  and  _45
REMARK   18  A    between atoms: _44  and  _47
REMARK   19  A    between atoms: _47  and  _48
REMARK   20  A    between atoms: _52  and  _53
REMARK   21  A    between atoms: _58  and  _60
REMARK   22  A    between atoms: _60  and  _61
REMARK   23  A    between atoms: _60  and  _63
REMARK   24  A    between atoms: _63  and  _64
REMARK   25  A    between atoms: _67  and  _69
REMARK   26  A    between atoms: _69  and  _70
REMARK   27  A    between atoms: _69  and  _72
REMARK   28  A    between atoms: _72  and  _73
REMARK   29  A    between atoms: _73  and  _74
REMARK   30  A    between atoms: _74  and  _75
REMARK   31  A    between atoms: _75  and  _76
REMARK   32  A    between atoms: _80  and  _82
REMARK   33  A    between atoms: _82  and  _83
REMARK   34  A    between atoms: _86  and  _88
REMARK   35  A    between atoms: _88  and  _89
REMARK   36  A    between atoms: _88  and  _91
REMARK   37  A    between atoms: _91  and  _92
REMARK   38  A    between atoms: _95  and  _97
REMARK   39  A    between atoms: _97  and  _98
REMARK   40  A    between atoms: _97  and  _100
REMARK   41  A    between atoms: _100  and  _101
REMARK   42  A    between atoms: _104  and  _106
REMARK   43  A    between atoms: _106  and  _107
REMARK   44  A    between atoms: _109  and  _111
REMARK   45  A    between atoms: _111  and  _112
REMARK   46  A    between atoms: _111  and  _114
REMARK   47  A    between atoms: _114  and  _115
REMARK   48  A    between atoms: _120  and  _122
REMARK   49  A    between atoms: _122  and  _123
REMARK   50  A    between atoms: _122  and  _125
REMARK   51  A    between atoms: _125  and  _126
REMARK   52  A    between atoms: _129  and  _131
REMARK   53  A    between atoms: _131  and  _132
REMARK   54  A    between atoms: _131  and  _134
REMARK   55  A    between atoms: _134  and  _135
REMARK   56  A    between atoms: _135  and  _136
REMARK   57  A    between atoms: _136  and  _137
REMARK   58  A    between atoms: _137  and  _138
REMARK   59  A    between atoms: _142  and  _144
REMARK   60  A    between atoms: _144  and  _145
REMARK   61  A    between atoms: _144  and  _147
REMARK   62  A    between atoms: _147  and  _148
REMARK   63  A    between atoms: _151  and  _153
REMARK   64  A    between atoms: _153  and  _154
REMARK   65  A    between atoms: _153  and  _156
REMARK   66  A    between atoms: _156  and  _157
REMARK   67  A    between atoms: _157  and  _158
REMARK   68  A    between atoms: _158  and  _159
REMARK   69  A    between atoms: _159  and  _160
REMARK   70  A    between atoms: _164  and  _166
REMARK   71  A    between atoms: _166  and  _167
REMARK   72  A    between atoms: _169  and  _171
REMARK   73  A    between atoms: _171  and  _172
REMARK   74  A    between atoms: _171  and  _174
REMARK   75  A    between atoms: _174  and  _175
REMARK   76  A    between atoms: _178  and  _180
REMARK   77  A    between atoms: _180  and  _181
REMARK   78  A    between atoms: _184  and  _186
REMARK   79  A    between atoms: _186  and  _187
REMARK   80  A    between atoms: _186  and  _189
REMARK   81  A    between atoms: _189  and  _190
REMARK   82  A    between atoms: _193  and  _195
REMARK   83  A    between atoms: _195  and  _196
REMARK   84  A    between atoms: _195  and  _198
REMARK   85  A    between atoms: _198  and  _199
REMARK   86  A    between atoms: _199  and  _200
REMARK   87  A    between atoms: _202  and  _204
REMARK   88  A    between atoms: _204  and  _205
REMARK   89  A    between atoms: _204  and  _207
REMARK   90  A    between atoms: _207  and  _208
REMARK   91  A    between atoms: _218  and  _220
REMARK   92  A    between atoms: _220  and  _221
REMARK   93  A    between atoms: _220  and  _223
REMARK   94  A    between atoms: _223  and  _224
REMARK   95  A    between atoms: _227  and  _229
REMARK   96  A    between atoms: _229  and  _230
REMARK   97  A    between atoms: _229  and  _232
REMARK   98  A    between atoms: _232  and  _233
REMARK   99  A    between atoms: _233  and  _234
REMARK  100  A    between atoms: _234  and  _235
REMARK  101  A    between atoms: _235  and  _236
REMARK  102  A    between atoms: _240  and  _242
REMARK  103  A    between atoms: _242  and  _243
REMARK  104  A    between atoms: _242  and  _245
REMARK  105  A    between atoms: _245  and  _246
REMARK  106  A    between atoms: _246  and  _247
REMARK  107  A    between atoms: _247  and  _248
REMARK  108  A    between atoms: _257  and  _259
REMARK  109  A    between atoms: _259  and  _260
REMARK  110  A    between atoms: _262  and  _264
REMARK  111  A    between atoms: _264  and  _265
REMARK  112  A    between atoms: _264  and  _267
REMARK  113  A    between atoms: _267  and  _268
REMARK  114  A    between atoms: _271  and  _273
REMARK  115  A    between atoms: _273  and  _274
REMARK  116  A    between atoms: _273  and  _276
REMARK  117  A    between atoms: _276  and  _277
REMARK  118  A    between atoms: _277  and  _278
REMARK  119  A    between atoms: _278  and  _279
REMARK  120  A    between atoms: _288  and  _290
REMARK  121  A    between atoms: _290  and  _291
REMARK  122  A    between atoms: _290  and  _293
REMARK  123  A    between atoms: _293  and  _294
REMARK  124  A    between atoms: _300  and  _302
REMARK  125  A    between atoms: _302  and  _303
REMARK  126  A    between atoms: _302  and  _305
REMARK  127  A    between atoms: _305  and  _306
REMARK  128  A    between atoms: _309  and  _311
REMARK  129  A    between atoms: _311  and  _312
REMARK  130  A    between atoms: _311  and  _314
REMARK  131  A    between atoms: _314  and  _315
REMARK  132  A    between atoms: _321  and  _323
REMARK  133  A    between atoms: _323  and  _324
REMARK  134  A    between atoms: _323  and  _326
REMARK  135  A    between atoms: _326  and  _327
REMARK  136  A    between atoms: _330  and  _332
REMARK  137  A    between atoms: _332  and  _333
REMARK  138  A    between atoms: _332  and  _335
REMARK  139  A    between atoms: _335  and  _336
REMARK  140  A    between atoms: _339  and  _341
REMARK  141  A    between atoms: _341  and  _342
REMARK  142  A    between atoms: _341  and  _344
REMARK  143  A    between atoms: _344  and  _345
REMARK  144  A    between atoms: _348  and  _350
REMARK  145  A    between atoms: _350  and  _351
REMARK  146  A    between atoms: _350  and  _353
REMARK  147  A    between atoms: _353  and  _354
REMARK  148  A    between atoms: _354  and  _355
REMARK  149  A    between atoms: _355  and  _356
REMARK  150  A    between atoms: _365  and  _367
REMARK  151  A    between atoms: _367  and  _368
REMARK  152  A    between atoms: _367  and  _370
REMARK  153  A    between atoms: _370  and  _371
REMARK  154  A    between atoms: _376  and  _378
REMARK  155  A    between atoms: _378  and  _379
REMARK  156  A    between atoms: _382  and  _384
REMARK  157  A    between atoms: _384  and  _385
REMARK  158  A    between atoms: _384  and  _387
REMARK  159  A    between atoms: _387  and  _388
REMARK  160  A    between atoms: _391  and  _393
REMARK  161  A    between atoms: _393  and  _394
REMARK  162  A    between atoms: _397  and  _399
REMARK  163  A    between atoms: _399  and  _400
REMARK  164  A    between atoms: _399  and  _402
REMARK  165  A    between atoms: _402  and  _403
REMARK  166  A    between atoms: _408  and  _409
REMARK  167  A    between atoms: _411  and  _413
REMARK  168  A    between atoms: _413  and  _414
REMARK  169  A    between atoms: _417  and  _419
REMARK  170  A    between atoms: _419  and  _420
REMARK  171  A    between atoms: _419  and  _422
REMARK  172  A    between atoms: _422  and  _423
REMARK  173  A    between atoms: _426  and  _428
REMARK  174  A    between atoms: _428  and  _429
REMARK  175  A    between atoms: _428  and  _431
REMARK  176  A    between atoms: _431  and  _432
REMARK  177  A    between atoms: _432  and  _433
REMARK  178  A    between atoms: _433  and  _434
REMARK  179  A    between atoms: _434  and  _435
REMARK  180  A    between atoms: _439  and  _441
REMARK  181  A    between atoms: _441  and  _442
REMARK  182  A    between atoms: _441  and  _444
REMARK  183  A    between atoms: _444  and  _445
REMARK  184  A    between atoms: _450  and  _451
REMARK  185  A    between atoms: _453  and  _455
REMARK  186  A    between atoms: _455  and  _456
REMARK  187  A    between atoms: _455  and  _458
REMARK  188  A    between atoms: _458  and  _459
REMARK  189  A    between atoms: _464  and  _466
REMARK  190  A    between atoms: _466  and  _467
REMARK  191  A    between atoms: _469  and  _471
REMARK  192  A    between atoms: _471  and  _472
REMARK  193  A    between atoms: _471  and  _474
REMARK  194  A    between atoms: _474  and  _475
REMARK  195  A    between atoms: _478  and  _480
REMARK  196  A    between atoms: _480  and  _481
REMARK  197  A    between atoms: _480  and  _483
REMARK  198  A    between atoms: _486  and  _488
REMARK  199  A    between atoms: _488  and  _489
REMARK  200  A    between atoms: _488  and  _491
REMARK  201  A    between atoms: _491  and  _492
REMARK  202  A    between atoms: _495  and  _497
REMARK  203  A    between atoms: _497  and  _498
REMARK  204  A    between atoms: _497  and  _500
REMARK  205  A    between atoms: _500  and  _501
REMARK  206  A    between atoms: _507  and  _509
REMARK  207  A    between atoms: _509  and  _510
REMARK  208  A    between atoms: _509  and  _512
REMARK  209  A    between atoms: _512  and  _513
REMARK  210  A    between atoms: _513  and  _514
REMARK  211  A    between atoms: _519  and  _521
REMARK  212  A    between atoms: _521  and  _522
REMARK  213  A    between atoms: _525  and  _527
REMARK  214  A    between atoms: _527  and  _528
REMARK  215  A    between atoms: _531  and  _533
REMARK  216  A    between atoms: _533  and  _534
REMARK  217  A    between atoms: _533  and  _536
REMARK  218  A    between atoms: _536  and  _537
REMARK  219  A    between atoms: _540  and  _542
REMARK  220  A    between atoms: _542  and  _543
REMARK  221  A    between atoms: _542  and  _545
REMARK  222  A    between atoms: _545  and  _546
REMARK  223  A    between atoms: _551  and  _552
REMARK  224  A    between atoms: _554  and  _556
REMARK  225  A    between atoms: _556  and  _557
REMARK  226  A    between atoms: _560  and  _562
REMARK  227  A    between atoms: _562  and  _563
REMARK  228  A    between atoms: _567  and  _568
REMARK  229  A    between atoms: _573  and  _575
REMARK  230  A    between atoms: _575  and  _576
REMARK  231  A    between atoms: _575  and  _578
REMARK  232  A    between atoms: _578  and  _579
REMARK  233  A    between atoms: _585  and  _587
REMARK  234  A    between atoms: _587  and  _588
REMARK  235  A    between atoms: _587  and  _590
REMARK  236  A    between atoms: _590  and  _591
REMARK  237  A    between atoms: _596  and  _597
REMARK  238  A    between atoms: _599  and  _601
REMARK  239  A    between atoms: _601  and  _602
REMARK  240  A    between atoms: _601  and  _604
REMARK  241  A    between atoms: _604  and  _605
REMARK  242  A    between atoms: _605  and  _606
REMARK  243  A    between atoms: _606  and  _607
REMARK  244  A    between atoms: _607  and  _608
REMARK  245  A    between atoms: _612  and  _614
REMARK  246  A    between atoms: _614  and  _615
REMARK  247  A    between atoms: _614  and  _617
REMARK                            x       y       z     vdW  Elec       q    Type
REMARK                         _______ _______ _______ _____ _____    ______ ____
ROOT
ATOM      1  C   LEU A   2      17.969  -9.026  14.427  0.00  0.00    +0.241 C 
ATOM      2  O   LEU A   2      19.171  -8.767  14.459  0.00  0.00    -0.273 OA
ATOM      3  N   LYS A   3      17.500 -10.277  14.451  0.00  0.00    -0.298 N 
ATOM      4  H   LYS A   3      16.507 -10.448  14.193  0.00  0.00    +0.150 HD
ENDROOT
BRANCH   1   5
ATOM      5  CA  LEU A   2      16.948  -7.879  14.343  0.00  0.00    +0.149 C 
BRANCH   5   7
ATOM      6  C   ALA A   1      15.488  -7.274  12.464  0.00  0.00    +0.238 C 
ATOM      7  N   LEU A   2      15.786  -8.091  13.471  0.00  0.00    -0.297 N 
ATOM      8  H   LEU A   2      15.172  -8.912  13.647  0.00  0.00    +0.150 HD
ATOM      9  O   ALA A   1      16.268  -6.431  12.031  0.00  0.00    -0.274 OA
BRANCH   6  10
ATOM     10  CA  ALA A   1      14.088  -7.404  11.843  0.00  0.00    +0.145 C 
ATOM     11  CB  ALA A   1      13.090  -6.585  12.668  0.00  0.00    +0.028 C 
BRANCH  10  12
ATOM     12  N   ALA A   1      13.573  -8.773  11.668  0.00  0.00    -0.238 NA
ATOM     13  H   ALA A   1      13.198  -9.271  12.501  0.00  0.00    +0.142 HD
ENDBRANCH  10  12
ENDBRANCH   6  10
ENDBRANCH   5   7
BRANCH   5  14
ATOM     14  CB  LEU A   2      16.473  -7.549  15.763  0.00  0.00    +0.029 C 
BRANCH  14  15
ATOM     15  CG  LEU A   2      15.718  -6.234  15.932  0.00  0.00    +0.002 C 
ATOM     16  CD2 LEU A   2      15.025  -6.170  17.281  0.00  0.00    +0.000 C 
ATOM     17  CD1 LEU A   2      16.673  -5.053  15.763  0.00  0.00    +0.000 C 
ENDBRANCH  14  15
ENDBRANCH   5  14
ENDBRANCH   1   5
BRANCH   3  18
ATOM     18  CA  LYS A   3      18.343 -11.416  14.830  0.00  0.00    +0.137 C 
BRANCH  18  19
ATOM     19  C   LYS A   3      19.678 -11.506  14.096  0.00  0.00    +0.227 C 
ATOM     20  O   LYS A   3      20.709 -11.801  14.710  0.00  0.00    -0.286 OA
ENDBRANCH  18  19
BRANCH  18  21
ATOM     21  CB  LYS A   3      17.567 -12.715  14.670  0.00  0.00    +0.028 C 
BRANCH  21  22
ATOM     22  CG  LYS A   3      18.337 -13.984  14.991  0.00  0.00    -0.000 C 
BRANCH  22  23
ATOM     23  CD  LYS A   3      17.510 -15.229  14.655  0.00  0.00    -0.024 C 
BRANCH  23  24
ATOM     24  CE  LYS A   3      18.011 -16.464  15.418  0.00  0.00    -0.086 C 
BRANCH  24  25
ATOM     25  NZ  LYS A   3      17.777 -17.738  14.672  0.00  0.00    +0.380 N 
ATOM     26  HZ1 LYS A   3      18.134 -18.537  15.233  0.00  0.00    -0.089 HD
ATOM     27  HZ2 LYS A   3      16.758 -17.858  14.505  0.00  0.00    -0.089 HD
ATOM     28  HZ3 LYS A   3      18.277 -17.702  13.761  0.00  0.00    -0.089 HD
ENDBRANCH  24  25
ENDBRANCH  23  24
ENDBRANCH  22  23
ENDBRANCH  21  22
ENDBRANCH  18  21
ENDBRANCH   3  18
TORSDOF 13
REMARK  Name = ../refined-set-2016/2evl/2evl_pocket.pdb
REMARK  247 active torsions:
REMARK  status: ('A' for Active; 'I' for Inactive)
REMARK    1  A    between atoms: _1  and  _3
REMARK    2  A    between atoms: _3  and  _4
REMARK    3  A    between atoms: _3  and  _6
REMARK    4  A    between atoms: _6  and  _7
REMARK    5  A    between atoms: _13  and  _15
REMARK    6  A    between atoms: _15  and  _16
REMARK    7  A    between atoms: _15  and  _18
REMARK    8  A    between atoms: _18  and  _19
REMARK    9  A    between atoms: _22  and  _24
REMARK   10  A    between atoms: _24  and  _25
REMARK   11  A    between atoms: _24  and  _27
REMARK   12  A    between atoms: _30  and  _32
REMARK   13  A    between atoms: _32  and  _33
REMARK   14  A    between atoms: _32  and  _35
REMARK   15  A    between atoms: _35  and  _36
REMARK   16  A    between atoms: _42  and  _44
REMARK   17  A    between atoms: _44  and  _45
REMARK   18  A    between atoms: _44  and  _47
REMARK   19  A    between atoms: _47  and  _48
REMARK   20  A    between atoms: _52  and  _53
REMARK   21  A    between atoms: _58  and  _60
REMARK   22  A    between atoms: _60  and  _61
REMARK   23  A    between atoms: _60  and  _63
REMARK   24  A    between atoms: _63  and  _64
REMARK   25  A    between atoms: _67  and  _69
REMARK   26  A    between atoms: _69  and  _70
REMARK   27  A    between atoms: _69  and  _72
REMARK   28  A    between atoms: _72  and  _73
REMARK   29  A    between atoms: _73  and  _74
REMARK   30  A    between atoms: _74  and  _75
REMARK   31  A    between atoms: _75  and  _76
REMARK   32  A    between atoms: _80  and  _82
REMARK   33  A    between atoms: _82  and  _83
REMARK   34  A    between atoms: _86  and  _88
REMARK   35  A    between atoms: _88  and  _89
REMARK   36  A    between atoms: _88  and  _91
REMARK   37  A    between atoms: _91  and  _92
REMARK   38  A    between atoms: _95  and  _97
REMARK   39  A    between atoms: _97  and  _98
REMARK   40  A    between atoms: _97  and  _100
REMARK   41  A    between atoms: _100  and  _101
REMARK   42  A    between atoms: _104  and  _106
REMARK   43  A    between atoms: _106  and  _107
REMARK   44  A    between atoms: _109  and  _111
REMARK   45  A    between atoms: _111  and  _112
REMARK   46  A    between atoms: _111  and  _114
REMARK   47  A    between atoms: _114  and  _115
REMARK   48  A    between atoms: _120  and  _122
REMARK   49  A    between atoms: _122  and  _123
REMARK   50  A    between atoms: _122  and  _125
REMARK   51  A    between atoms: _125  and  _126
REMARK   52  A    between atoms: _129  and  _131
REMARK   53  A    between atoms: _131  and  _132
REMARK   54  A    between atoms: _131  and  _134
REMARK   55  A    between atoms: _134  and  _135
REMARK   56  A    between atoms: _135  and  _136
REMARK   57  A    between atoms: _136  and  _137
REMARK   58  A    between atoms: _137  and  _138
REMARK   59  A    between atoms: _142  and  _144
REMARK   60  A    between atoms: _144  and  _145
REMARK   61  A    between atoms: _144  and  _147
REMARK   62  A    between atoms: _147  and  _148
REMARK   63  A    between atoms: _151  and  _153
REMARK   64  A    between atoms: _153  and  _154
REMARK   65  A    between atoms: _153  and  _156
REMARK   66  A    between atoms: _156  and  _157
REMARK   67  A    between atoms: _157  and  _158
REMARK   68  A    between atoms: _158  and  _159
REMARK   69  A    between atoms: _159  and  _160
REMARK   70  A    between atoms: _164  and  _166
REMARK   71  A    between atoms: _166  and  _167
REMARK   72  A    between atoms: _169  and  _171
REMARK   73  A    between atoms: _171  and  _172
REMARK   74  A    between atoms: _171  and  _174
REMARK   75  A    between atoms: _174  and  _175
REMARK   76  A    between atoms: _178  and  _180
REMARK   77  A    between atoms: _180  and  _181
REMARK   78  A    between atoms: _184  and  _186
REMARK   79  A    between atoms: _186  and  _187
REMARK   80  A    between atoms: _186  and  _189
REMARK   81  A    between atoms: _189  and  _190
REMARK   82  A    between atoms: _193  and  _195
REMARK   83  A    between atoms: _195  and  _196
REMARK   84  A    between atoms: _195  and  _198
REMARK   85  A    between atoms: _198  and  _199
REMARK   86  A    between atoms: _199  and  _200
REMARK   87  A    between atoms: _202  and  _204
REMARK   88  A    between atoms: _204  and  _205
REMARK   89  A    between atoms: _204  and  _207
REMARK   90  A    between atoms: _207  and  _208
REMARK   91  A    between atoms: _218  and  _220
REMARK   92  A    between atoms: _220  and  _221
REMARK   93  A    between atoms: _220  and  _223
REMARK   94  A    between atoms: _223  and  _224
REMARK   95  A    between atoms: _227  and  _229
REMARK   96  A    between atoms: _229  and  _230
REMARK   97  A    between atoms: _229  and  _232
REMARK   98  A    between atoms: _232  and  _233
REMARK   99  A    between atoms: _233  and  _234
REMARK  100  A    between atoms: _234  and  _235
REMARK  101  A    between atoms: _235  and  _236
REMARK  102  A    between atoms: _240  and  _242
REMARK  103  A    between atoms: _242  and  _243
REMARK  104  A    between atoms: _242  and  _245
REMARK  105  A    between atoms: _245  and  _246
REMARK  106  A    between atoms: _246  and  _247
REMARK  107  A    between atoms: _247  and  _248
REMARK  108  A    between atoms: _257  and  _259
REMARK  109  A    between atoms: _259  and  _260
REMARK  110  A    between atoms: _262  and  _264
REMARK  111  A    between atoms: _264  and  _265
REMARK  112  A    between atoms: _264  and  _267
REMARK  113  A    between atoms: _267  and  _268
REMARK  114  A    between atoms: _271  and  _273
REMARK  115  A    between atoms: _273  and  _274
REMARK  116  A    between atoms: _273  and  _276
REMARK  117  A    between atoms: _276  and  _277
REMARK  118  A    between atoms: _277  and  _278
REMARK  119  A    between atoms: _278  and  _279
REMARK  120  A    between atoms: _288  and  _290
REMARK  121  A    between atoms: _290  and  _291
REMARK  122  A    between atoms: _290  and  _293
REMARK  123  A    between atoms: _293  and  _294
REMARK  124  A    between atoms: _300  and  _302
REMARK  125  A    between atoms: _302  and  _303
REMARK  126  A    between atoms: _302  and  _305
REMARK  127  A    between atoms: _305  and  _306
REMARK  128  A    between atoms: _309  and  _311
REMARK  129  A    between atoms: _311  and  _312
REMARK  130  A    between atoms: _311  and  _314
REMARK  131  A    between atoms: _314  and  _315
REMARK  132  A    between atoms: _321  and  _323
REMARK  133  A    between atoms: _323  and  _324
REMARK  134  A    between atoms: _323  and  _326
REMARK  135  A    between atoms: _326  and  _327
REMARK  136  A    between atoms: _330  and  _332
REMARK  137  A    between atoms: _332  and  _333
REMARK  138  A    between atoms: _332  and  _335
REMARK  139  A    between atoms: _335  and  _336
REMARK  140  A    between atoms: _339  and  _341
REMARK  141  A    between atoms: _341  and  _342
REMARK  142  A    between atoms: _341  and  _344
REMARK  143  A    between atoms: _344  and  _345
REMARK  144  A    between atoms: _348  and  _350
REMARK  145  A    between atoms: _350  and  _351
REMARK  146  A    between atoms: _350  and  _353
REMARK  147  A    between atoms: _353  and  _354
REMARK  148  A    between atoms: _354  and  _355
REMARK  149  A    between atoms: _355  and  _356
REMARK  150  A    between atoms: _365  and  _367
REMARK  151  A    between atoms: _367  and  _368
REMARK  152  A    between atoms: _367  and  _370
REMARK  153  A    between atoms: _370  and  _371
REMARK  154  A    between atoms: _376  and  _378
REMARK  155  A    between atoms: _378  and  _379
REMARK  156  A    between atoms: _382  and  _384
REMARK  157  A    between atoms: _384  and  _385
REMARK  158  A    between atoms: _384  and  _387
REMARK  159  A    between atoms: _387  and  _388
REMARK  160  A    between atoms: _391  and  _393
REMARK  161  A    between atoms: _393  and  _394
REMARK  162  A    between atoms: _397  and  _399
REMARK  163  A    between atoms: _399  and  _400
REMARK  164  A    between atoms: _399  and  _402
REMARK  165  A    between atoms: _402  and  _403
REMARK  166  A    between atoms: _408  and  _409
REMARK  167  A    between atoms: _411  and  _413
REMARK  168  A    between atoms: _413  and  _414
REMARK  169  A    between atoms: _417  and  _419
REMARK  170  A    between atoms: _419  and  _420
REMARK  171  A    between atoms: _419  and  _422
REMARK  172  A    between atoms: _422  and  _423
REMARK  173  A    between atoms: _426  and  _428
REMARK  174  A    between atoms: _428  and  _429
REMARK  175  A    between atoms: _428  and  _431
REMARK  176  A    between atoms: _431  and  _432
REMARK  177  A    between atoms: _432  and  _433
REMARK  178  A    between atoms: _433  and  _434
REMARK  179  A    between atoms: _434  and  _435
REMARK  180  A    between atoms: _439  and  _441
REMARK  181  A    between atoms: _441  and  _442
REMARK  182  A    between atoms: _441  and  _444
REMARK  183  A    between atoms: _444  and  _445
REMARK  184  A    between atoms: _450  and  _451
REMARK  185  A    between atoms: _453  and  _455
REMARK  186  A    between atoms: _455  and  _456
REMARK  187  A    between atoms: _455  and  _458
REMARK  188  A    between atoms: _458  and  _459
REMARK  189  A    between atoms: _464  and  _466
REMARK  190  A    between atoms: _466  and  _467
REMARK  191  A    between atoms: _469  and  _471
REMARK  192  A    between atoms: _471  and  _472
REMARK  193  A    between atoms: _471  and  _474
REMARK  194  A    between atoms: _474  and  _475
REMARK  195  A    between atoms: _478  and  _480
REMARK  196  A    between atoms: _480  and  _481
REMARK  197  A    between atoms: _480  and  _483
REMARK  198  A    between atoms: _486  and  _488
REMARK  199  A    between atoms: _488  and  _489
REMARK  200  A    between atoms: _488  and  _491
REMARK  201  A    between atoms: _491  and  _492
REMARK  202  A    between atoms: _495  and  _497
REMARK  203  A    between atoms: _497  and  _498
REMARK  204  A    between atoms: _497  and  _500
REMARK  205  A    between atoms: _500  and  _501
REMARK  206  A    between atoms: _507  and  _509
REMARK  207  A    between atoms: _509  and  _510
REMARK  208  A    between atoms: _509  and  _512
REMARK  209  A    between atoms: _512  and  _513
REMARK  210  A    between atoms: _513  and  _514
REMARK  211  A    between atoms: _519  and  _521
REMARK  212  A    between atoms: _521  and  _522
REMARK  213  A    between atoms: _525  and  _527
REMARK  214  A    between atoms: _527  and  _528
REMARK  215  A    between atoms: _531  and  _533
REMARK  216  A    between atoms: _533  and  _534
REMARK  217  A    between atoms: _533  and  _536
REMARK  218  A    between atoms: _536  and  _537
REMARK  219  A    between atoms: _540  and  _542
REMARK  220  A    between atoms: _542  and  _543
REMARK  221  A    between atoms: _542  and  _545
REMARK  222  A    between atoms: _545  and  _546
REMARK  223  A    between atoms: _551  and  _552
REMARK  224  A    between atoms: _554  and  _556
REMARK  225  A    between atoms: _556  and  _557
REMARK  226  A    between atoms: _560  and  _562
REMARK  227  A    between atoms: _562  and  _563
REMARK  228  A    between atoms: _567  and  _568
REMARK  229  A    between atoms: _573  and  _575
REMARK  230  A    between atoms: _575  and  _576
REMARK  231  A    between atoms: _575  and  _578
REMARK  232  A    between atoms: _578  and  _579
REMARK  233  A    between atoms: _585  and  _587
REMARK  234  A    between atoms: _587  and  _588
REMARK  235  A    between atoms: _587  and  _590
REMARK  236  A    between atoms: _590  and  _591
REMARK  237  A    between atoms: _596  and  _597
REMARK  238  A    between atoms: _599  and  _601
REMARK  239  A    between atoms: _601  and  _602
REMARK  240  A    between atoms: _601  and  _604
REMARK  241  A    between atoms: _604  and  _605
REMARK  242  A    between atoms: _605  and  _606
REMARK  243  A    between atoms: _606  and  _607
REMARK  244  A    between atoms: _607  and  _608
REMARK  245  A    between atoms: _612  and  _614
REMARK  246  A    between atoms: _614  and  _615
REMARK  247  A    between atoms: _614  and  _617
REMARK                            x       y       z     vdW  Elec       q    Type
REMARK                         _______ _______ _______ _____ _____    ______ ____
ROOT
ATOM      1  C   TYR A   1      22.918  -8.461  15.051  0.00  0.00    +0.239 C 
ATOM      2  N   HIS A   2      22.476  -9.557  15.658  0.00  0.00    -0.297 N 
ATOM      3  H   HIS A   2      21.826 -10.191  15.150  0.00  0.00    +0.150 HD
ATOM      4  O   TYR A   1      23.547  -7.572  15.640  0.00  0.00    -0.274 OA
ENDROOT
BRANCH   1   5
ATOM      5  CA  TYR A   1      22.600  -8.334  13.577  0.00  0.00    +0.149 C 
BRANCH   5   6
ATOM      6  N   TYR A   1      21.674  -9.371  13.146  0.00  0.00    -0.238 NA
ATOM      7  H   TYR A   1      20.685  -9.300  13.458  0.00  0.00    +0.142 HD
ENDBRANCH   5   6
BRANCH   5   8
ATOM      8  CB  TYR A   1      22.004  -6.955  13.311  0.00  0.00    +0.053 C 
BRANCH   8   9
ATOM      9  CG  TYR A   1      21.430  -6.823  11.923  0.00  0.00    -0.020 A 
ATOM     10  CD2 TYR A   1      20.056  -6.846  11.711  0.00  0.00    -0.001 A 
ATOM     11  CE2 TYR A   1      19.529  -6.757  10.454  0.00  0.00    +0.036 A 
ATOM     12  CZ  TYR A   1      20.368  -6.633   9.367  0.00  0.00    +0.134 A 
ATOM     13  CE1 TYR A   1      21.747  -6.602   9.555  0.00  0.00    +0.036 A 
ATOM     14  CD1 TYR A   1      22.265  -6.709  10.823  0.00  0.00    -0.001 A 
BRANCH  12  15
ATOM     15  OH  TYR A   1      19.847  -6.514   8.074  0.00  0.00    -0.506 OA
ATOM     16  HH  TYR A   1      20.591  -6.435   7.426  0.00  0.00    +0.292 HD
ENDBRANCH  12  15
ENDBRANCH   8   9
ENDBRANCH   5   8
ENDBRANCH   1   5
BRANCH   2  17
ATOM     17  CA  HIS A   2      22.879  -9.893  17.016  0.00  0.00    +0.155 C 
BRANCH  17  18
ATOM     18  C   HIS A   2      23.795 -11.133  17.049  0.00  0.00    +0.241 C 
ATOM     19  N   GLY A   3      24.884 -11.037  17.809  0.00  0.00    -0.296 N 
ATOM     20  H   GLY A   3      25.173 -10.102  18.161  0.00  0.00    +0.150 HD
ATOM     21  O   HIS A   2      23.495 -12.155  16.427  0.00  0.00    -0.273 OA
BRANCH  19  22
ATOM     22  CA  GLY A   3      25.683 -12.204  18.163  0.00  0.00    +0.163 C 
BRANCH  22  23
ATOM     23  C   GLY A   3      24.972 -13.077  19.167  0.00  0.00    +0.229 C 
ATOM     24  O   GLY A   3      23.886 -12.728  19.669  0.00  0.00    -0.286 OA
ENDBRANCH  22  23
ENDBRANCH  19  22
ENDBRANCH  17  18
BRANCH  17  25
ATOM     25  CB  HIS A   2      21.654 -10.161  17.877  0.00  0.00    +0.076 C 
BRANCH  25  26
ATOM     26  CG  HIS A   2      20.803  -8.953  18.101  0.00  0.00    +0.082 A 
ATOM     27  ND1 HIS A   2      19.575  -9.021  18.718  0.00  0.00    -0.227 NA
ATOM     28  CE1 HIS A   2      19.055  -7.808  18.788  0.00  0.00    +0.199 A 
ATOM     29  NE2 HIS A   2      19.898  -6.956  18.228  0.00  0.00    -0.221 NA
ATOM     30  CD2 HIS A   2      20.998  -7.649  17.784  0.00  0.00    +0.115 A 
ENDBRANCH  25  26
ENDBRANCH  17  25
ENDBRANCH   2  17
TORSDOF 11
REMARK  Name = ../refined-set-2016/2evl/2evl_pocket.pdb
REMARK  247 active torsions:
REMARK  status: ('A' for Active; 'I' for Inactive)
REMARK    1  A    between atoms: _1  and  _3
REMARK    2  A    between atoms: _3  and  _4
REMARK    3  A    between atoms: _3  and  _6
REMARK    4  A    between atoms: _6  and  _7
REMARK    5  A    between atoms: _13  and  _15
REMARK    6  A    between atoms: _15  and  _16
REMARK    7  A    between atoms: _15  and  _18
REMARK    8  A    between atoms: _18  and  _19
REMARK    9  A    between atoms: _22  and  _24
REMARK   10  A    between atoms: _24  and  _25
REMARK   11  A    between atoms: _24  and  _27
REMARK   12  A    between atoms: _30  and  _32
REMARK   13  A    between atoms: _32  and  _33
REMARK   14  A    between atoms: _32  and  _35
REMARK   15  A    between atoms: _35  and  _36
REMARK   16  A    between atoms: _42  and  _44
REMARK   17  A    between atoms: _44  and  _45
REMARK   18  A    between atoms: _44  and  _47
REMARK   19  A    between atoms: _47  and  _48
REMARK   20  A    between atoms: _52  and  _53
REMARK   21  A    between atoms: _58  and  _60
REMARK   22  A    between atoms: _60  and  _61
REMARK   23  A    between atoms: _60  and  _63
REMARK   24  A    between atoms: _63  and  _64
REMARK   25  A    between atoms: _67  and  _69
REMARK   26  A    between atoms: _69  and  _70
REMARK   27  A    between atoms: _69  and  _72
REMARK   28  A    between atoms: _72  and  _73
REMARK   29  A    between atoms: _73  and  _74
REMARK   30  A    between atoms: _74  and  _75
REMARK   31  A    between atoms: _75  and  _76
REMARK   32  A    between atoms: _80  and  _82
REMARK   33  A    between atoms: _82  and  _83
REMARK   34  A    between atoms: _86  and  _88
REMARK   35  A    between atoms: _88  and  _89
REMARK   36  A    between atoms: _88  and  _91
REMARK   37  A    between atoms: _91  and  _92
REMARK   38  A    between atoms: _95  and  _97
REMARK   39  A    between atoms: _97  and  _98
REMARK   40  A    between atoms: _97  and  _100
REMARK   41  A    between atoms: _100  and  _101
REMARK   42  A    between atoms: _104  and  _106
REMARK   43  A    between atoms: _106  and  _107
REMARK   44  A    between atoms: _109  and  _111
REMARK   45  A    between atoms: _111  and  _112
REMARK   46  A    between atoms: _111  and  _114
REMARK   47  A    between atoms: _114  and  _115
REMARK   48  A    between atoms: _120  and  _122
REMARK   49  A    between atoms: _122  and  _123
REMARK   50  A    between atoms: _122  and  _125
REMARK   51  A    between atoms: _125  and  _126
REMARK   52  A    between atoms: _129  and  _131
REMARK   53  A    between atoms: _131  and  _132
REMARK   54  A    between atoms: _131  and  _134
REMARK   55  A    between atoms: _134  and  _135
REMARK   56  A    between atoms: _135  and  _136
REMARK   57  A    between atoms: _136  and  _137
REMARK   58  A    between atoms: _137  and  _138
REMARK   59  A    between atoms: _142  and  _144
REMARK   60  A    between atoms: _144  and  _145
REMARK   61  A    between atoms: _144  and  _147
REMARK   62  A    between atoms: _147  and  _148
REMARK   63  A    between atoms: _151  and  _153
REMARK   64  A    between atoms: _153  and  _154
REMARK   65  A    between atoms: _153  and  _156
REMARK   66  A    between atoms: _156  and  _157
REMARK   67  A    between atoms: _157  and  _158
REMARK   68  A    between atoms: _158  and  _159
REMARK   69  A    between atoms: _159  and  _160
REMARK   70  A    between atoms: _164  and  _166
REMARK   71  A    between atoms: _166  and  _167
REMARK   72  A    between atoms: _169  and  _171
REMARK   73  A    between atoms: _171  and  _172
REMARK   74  A    between atoms: _171  and  _174
REMARK   75  A    between atoms: _174  and  _175
REMARK   76  A    between atoms: _178  and  _180
REMARK   77  A    between atoms: _180  and  _181
REMARK   78  A    between atoms: _184  and  _186
REMARK   79  A    between atoms: _186  and  _187
REMARK   80  A    between atoms: _186  and  _189
REMARK   81  A    between atoms: _189  and  _190
REMARK   82  A    between atoms: _193  and  _195
REMARK   83  A    between atoms: _195  and  _196
REMARK   84  A    between atoms: _195  and  _198
REMARK   85  A    between atoms: _198  and  _199
REMARK   86  A    between atoms: _199  and  _200
REMARK   87  A    between atoms: _202  and  _204
REMARK   88  A    between atoms: _204  and  _205
REMARK   89  A    between atoms: _204  and  _207
REMARK   90  A    between atoms: _207  and  _208
REMARK   91  A    between atoms: _218  and  _220
REMARK   92  A    between atoms: _220  and  _221
REMARK   93  A    between atoms: _220  and  _223
REMARK   94  A    between atoms: _223  and  _224
REMARK   95  A    between atoms: _227  and  _229
REMARK   96  A    between atoms: _229  and  _230
REMARK   97  A    between atoms: _229  and  _232
REMARK   98  A    between atoms: _232  and  _233
REMARK   99  A    between atoms: _233  and  _234
REMARK  100  A    between atoms: _234  and  _235
REMARK  101  A    between atoms: _235  and  _236
REMARK  102  A    between atoms: _240  and  _242
REMARK  103  A    between atoms: _242  and  _243
REMARK  104  A    between atoms: _242  and  _245
REMARK  105  A    between atoms: _245  and  _246
REMARK  106  A    between atoms: _246  and  _247
REMARK  107  A    between atoms: _247  and  _248
REMARK  108  A    between atoms: _257  and  _259
REMARK  109  A    between atoms: _259  and  _260
REMARK  110  A    between atoms: _262  and  _264
REMARK  111  A    between atoms: _264  and  _265
REMARK  112  A    between atoms: _264  and  _267
REMARK  113  A    between atoms: _267  and  _268
REMARK  114  A    between atoms: _271  and  _273
REMARK  115  A    between atoms: _273  and  _274
REMARK  116  A    between atoms: _273  and  _276
REMARK  117  A    between atoms: _276  and  _277
REMARK  118  A    between atoms: _277  and  _278
REMARK  119  A    between atoms: _278  and  _279
REMARK  120  A    between atoms: _288  and  _290
REMARK  121  A    between atoms: _290  and  _291
REMARK  122  A    between atoms: _290  and  _293
REMARK  123  A    between atoms: _293  and  _294
REMARK  124  A    between atoms: _300  and  _302
REMARK  125  A    between atoms: _302  and  _303
REMARK  126  A    between atoms: _302  and  _305
REMARK  127  A    between atoms: _305  and  _306
REMARK  128  A    between atoms: _309  and  _311
REMARK  129  A    between atoms: _311  and  _312
REMARK  130  A    between atoms: _311  and  _314
REMARK  131  A    between atoms: _314  and  _315
REMARK  132  A    between atoms: _321  and  _323
REMARK  133  A    between atoms: _323  and  _324
REMARK  134  A    between atoms: _323  and  _326
REMARK  135  A    between atoms: _326  and  _327
REMARK  136  A    between atoms: _330  and  _332
REMARK  137  A    between atoms: _332  and  _333
REMARK  138  A    between atoms: _332  and  _335
REMARK  139  A    between atoms: _335  and  _336
REMARK  140  A    between atoms: _339  and  _341
REMARK  141  A    between atoms: _341  and  _342
REMARK  142  A    between atoms: _341  and  _344
REMARK  143  A    between atoms: _344  and  _345
REMARK  144  A    between atoms: _348  and  _350
REMARK  145  A    between atoms: _350  and  _351
REMARK  146  A    between atoms: _350  and  _353
REMARK  147  A    between atoms: _353  and  _354
REMARK  148  A    between atoms: _354  and  _355
REMARK  149  A    between atoms: _355  and  _356
REMARK  150  A    between atoms: _365  and  _367
REMARK  151  A    between atoms: _367  and  _368
REMARK  152  A    between atoms: _367  and  _370
REMARK  153  A    between atoms: _370  and  _371
REMARK  154  A    between atoms: _376  and  _378
REMARK  155  A    between atoms: _378  and  _379
REMARK  156  A    between atoms: _382  and  _384
REMARK  157  A    between atoms: _384  and  _385
REMARK  158  A    between atoms: _384  and  _387
REMARK  159  A    between atoms: _387  and  _388
REMARK  160  A    between atoms: _391  and  _393
REMARK  161  A    between atoms: _393  and  _394
REMARK  162  A    between atoms: _397  and  _399
REMARK  163  A    between atoms: _399  and  _400
REMARK  164  A    between atoms: _399  and  _402
REMARK  165  A    between atoms: _402  and  _403
REMARK  166  A    between atoms: _408  and  _409
REMARK  167  A    between atoms: _411  and  _413
REMARK  168  A    between atoms: _413  and  _414
REMARK  169  A    between atoms: _417  and  _419
REMARK  170  A    between atoms: _419  and  _420
REMARK  171  A    between atoms: _419  and  _422
REMARK  172  A    between atoms: _422  and  _423
REMARK  173  A    between atoms: _426  and  _428
REMARK  174  A    between atoms: _428  and  _429
REMARK  175  A    between atoms: _428  and  _431
REMARK  176  A    between atoms: _431  and  _432
REMARK  177  A    between atoms: _432  and  _433
REMARK  178  A    between atoms: _433  and  _434
REMARK  179  A    between atoms: _434  and  _435
REMARK  180  A    between atoms: _439  and  _441
REMARK  181  A    between atoms: _441  and  _442
REMARK  182  A    between atoms: _441  and  _444
REMARK  183  A    between atoms: _444  and  _445
REMARK  184  A    between atoms: _450  and  _451
REMARK  185  A    between atoms: _453  and  _455
REMARK  186  A    between atoms: _455  and  _456
REMARK  187  A    between atoms: _455  and  _458
REMARK  188  A    between atoms: _458  and  _459
REMARK  189  A    between atoms: _464  and  _466
REMARK  190  A    between atoms: _466  and  _467
REMARK  191  A    between atoms: _469  and  _471
REMARK  192  A    between atoms: _471  and  _472
REMARK  193  A    between atoms: _471  and  _474
REMARK  194  A    between atoms: _474  and  _475
REMARK  195  A    between atoms: _478  and  _480
REMARK  196  A    between atoms: _480  and  _481
REMARK  197  A    between atoms: _480  and  _483
REMARK  198  A    between atoms: _486  and  _488
REMARK  199  A    between atoms: _488  and  _489
REMARK  200  A    between atoms: _488  and  _491
REMARK  201  A    between atoms: _491  and  _492
REMARK  202  A    between atoms: _495  and  _497
REMARK  203  A    between atoms: _497  and  _498
REMARK  204  A    between atoms: _497  and  _500
REMARK  205  A    between atoms: _500  and  _501
REMARK  206  A    between atoms: _507  and  _509
REMARK  207  A    between atoms: _509  and  _510
REMARK  208  A    between atoms: _509  and  _512
REMARK  209  A    between atoms: _512  and  _513
REMARK  210  A    between atoms: _513  and  _514
REMARK  211  A    between atoms: _519  and  _521
REMARK  212  A    between atoms: _521  and  _522
REMARK  213  A    between atoms: _525  and  _527
REMARK  214  A    between atoms: _527  and  _528
REMARK  215  A    between atoms: _531  and  _533
REMARK  216  A    between atoms: _533  and  _534
REMARK  217  A    between atoms: _533  and  _536
REMARK  218  A    between atoms: _536  and  _537
REMARK  219  A    between atoms: _540  and  _542
REMARK  220  A    between atoms: _542  and  _543
REMARK  221  A    between atoms: _542  and  _545
REMARK  222  A    between atoms: _545  and  _546
REMARK  223  A    between atoms: _551  and  _552
REMARK  224  A    between atoms: _554  and  _556
REMARK  225  A    between atoms: _556  and  _557
REMARK  226  A    between atoms: _560  and  _562
REMARK  227  A    between atoms: _562  and  _563
REMARK  228  A    between atoms: _567  and  _568
REMARK  229  A    between atoms: _573  and  _575
REMARK  230  A    between atoms: _575  and  _576
REMARK  231  A    between atoms: _575  and  _578
REMARK  232  A    between atoms: _578  and  _579
REMARK  233  A    between atoms: _585  and  _587
REMARK  234  A    between atoms: _587  and  _588
REMARK  235  A    between atoms: _587  and  _590
REMARK  236  A    between atoms: _590  and  _591
REMARK  237  A    between atoms: _596  and  _597
REMARK  238  A    between atoms: _599  and  _601
REMARK  239  A    between atoms: _601  and  _602
REMARK  240  A    between atoms: _601  and  _604
REMARK  241  A    between atoms: _604  and  _605
REMARK  242  A    between atoms: _605  and  _606
REMARK  243  A    between atoms: _606  and  _607
REMARK  244  A    between atoms: _607  and  _608
REMARK  245  A    between atoms: _612  and  _614
REMARK  246  A    between atoms: _614  and  _615
REMARK  247  A    between atoms: _614  and  _617
REMARK                            x       y       z     vdW  Elec       q    Type
REMARK                         _______ _______ _______ _____ _____    ______ ____
ROOT
ATOM      1  C   ILE A   1      23.681 -12.579  23.677  0.00  0.00    +0.238 C 
ATOM      2  O   ILE A   1      22.828 -12.783  24.523  0.00  0.00    -0.274 OA
ATOM      3  N   VAL A   2      23.544 -11.632  22.757  0.00  0.00    -0.298 N 
ATOM      4  H   VAL A   2      24.299 -11.483  22.058  0.00  0.00    +0.150 HD
ENDROOT
BRANCH   1   5
ATOM      5  CA  ILE A   1      24.969 -13.426  23.632  0.00  0.00    +0.145 C 
BRANCH   5   6
ATOM      6  N   ILE A   1      25.283 -13.891  22.268  0.00  0.00    -0.238 NA
ATOM      7  H   ILE A   1      26.133 -13.537  21.785  0.00  0.00    +0.142 HD
ENDBRANCH   5   6
BRANCH   5   8
ATOM      8  CB  ILE A   1      26.166 -12.653  24.263  0.00  0.00    +0.025 C 
ATOM      9  CG2 ILE A   1      25.792 -12.098  25.645  0.00  0.00    +0.002 C 
BRANCH   8  10
ATOM     10  CG1 ILE A   1      27.386 -13.582  24.362  0.00  0.00    +0.002 C 
ATOM     11  CD1 ILE A   1      28.684 -12.916  24.841  0.00  0.00    +0.000 C 
ENDBRANCH   8  10
ENDBRANCH   5   8
ENDBRANCH   1   5
BRANCH   3  12
ATOM     12  CA  VAL A   2      22.340 -10.792  22.713  0.00  0.00    +0.137 C 
BRANCH  12  13
ATOM     13  CB  VAL A   2      22.522  -9.579  21.764  0.00  0.00    +0.026 C 
ATOM     14  CG2 VAL A   2      23.594  -8.642  22.311  0.00  0.00    +0.002 C 
ATOM     15  CG1 VAL A   2      21.199  -8.799  21.585  0.00  0.00    +0.002 C 
ENDBRANCH  12  13
BRANCH  12  16
ATOM     16  C   VAL A   2      21.117 -11.648  22.326  0.00  0.00    +0.227 C 
ATOM     17  O   VAL A   2      20.018 -11.462  22.860  0.00  0.00    -0.286 OA
ENDBRANCH  12  16
ENDBRANCH   3  12
TORSDOF 7
REMARK  Name = ../refined-set-2016/2evl/2evl_pocket.pdb
REMARK  247 active torsions:
REMARK  status: ('A' for Active; 'I' for Inactive)
REMARK    1  A    between atoms: _1  and  _3
REMARK    2  A    between atoms: _3  and  _4
REMARK    3  A    between atoms: _3  and  _6
REMARK    4  A    between atoms: _6  and  _7
REMARK    5  A    between atoms: _13  and  _15
REMARK    6  A    between atoms: _15  and  _16
REMARK    7  A    between atoms: _15  and  _18
REMARK    8  A    between atoms: _18  and  _19
REMARK    9  A    between atoms: _22  and  _24
REMARK   10  A    between atoms: _24  and  _25
REMARK   11  A    between atoms: _24  and  _27
REMARK   12  A    between atoms: _30  and  _32
REMARK   13  A    between atoms: _32  and  _33
REMARK   14  A    between atoms: _32  and  _35
REMARK   15  A    between atoms: _35  and  _36
REMARK   16  A    between atoms: _42  and  _44
REMARK   17  A    between atoms: _44  and  _45
REMARK   18  A    between atoms: _44  and  _47
REMARK   19  A    between atoms: _47  and  _48
REMARK   20  A    between atoms: _52  and  _53
REMARK   21  A    between atoms: _58  and  _60
REMARK   22  A    between atoms: _60  and  _61
REMARK   23  A    between atoms: _60  and  _63
REMARK   24  A    between atoms: _63  and  _64
REMARK   25  A    between atoms: _67  and  _69
REMARK   26  A    between atoms: _69  and  _70
REMARK   27  A    between atoms: _69  and  _72
REMARK   28  A    between atoms: _72  and  _73
REMARK   29  A    between atoms: _73  and  _74
REMARK   30  A    between atoms: _74  and  _75
REMARK   31  A    between atoms: _75  and  _76
REMARK   32  A    between atoms: _80  and  _82
REMARK   33  A    between atoms: _82  and  _83
REMARK   34  A    between atoms: _86  and  _88
REMARK   35  A    between atoms: _88  and  _89
REMARK   36  A    between atoms: _88  and  _91
REMARK   37  A    between atoms: _91  and  _92
REMARK   38  A    between atoms: _95  and  _97
REMARK   39  A    between atoms: _97  and  _98
REMARK   40  A    between atoms: _97  and  _100
REMARK   41  A    between atoms: _100  and  _101
REMARK   42  A    between atoms: _104  and  _106
REMARK   43  A    between atoms: _106  and  _107
REMARK   44  A    between atoms: _109  and  _111
REMARK   45  A    between atoms: _111  and  _112
REMARK   46  A    between atoms: _111  and  _114
REMARK   47  A    between atoms: _114  and  _115
REMARK   48  A    between atoms: _120  and  _122
REMARK   49  A    between atoms: _122  and  _123
REMARK   50  A    between atoms: _122  and  _125
REMARK   51  A    between atoms: _125  and  _126
REMARK   52  A    between atoms: _129  and  _131
REMARK   53  A    between atoms: _131  and  _132
REMARK   54  A    between atoms: _131  and  _134
REMARK   55  A    between atoms: _134  and  _135
REMARK   56  A    between atoms: _135  and  _136
REMARK   57  A    between atoms: _136  and  _137
REMARK   58  A    between atoms: _137  and  _138
REMARK   59  A    between atoms: _142  and  _144
REMARK   60  A    between atoms: _144  and  _145
REMARK   61  A    between atoms: _144  and  _147
REMARK   62  A    between atoms: _147  and  _148
REMARK   63  A    between atoms: _151  and  _153
REMARK   64  A    between atoms: _153  and  _154
REMARK   65  A    between atoms: _153  and  _156
REMARK   66  A    between atoms: _156  and  _157
REMARK   67  A    between atoms: _157  and  _158
REMARK   68  A    between atoms: _158  and  _159
REMARK   69  A    between atoms: _159  and  _160
REMARK   70  A    between atoms: _164  and  _166
REMARK   71  A    between atoms: _166  and  _167
REMARK   72  A    between atoms: _169  and  _171
REMARK   73  A    between atoms: _171  and  _172
REMARK   74  A    between atoms: _171  and  _174
REMARK   75  A    between atoms: _174  and  _175
REMARK   76  A    between atoms: _178  and  _180
REMARK   77  A    between atoms: _180  and  _181
REMARK   78  A    between atoms: _184  and  _186
REMARK   79  A    between atoms: _186  and  _187
REMARK   80  A    between atoms: _186  and  _189
REMARK   81  A    between atoms: _189  and  _190
REMARK   82  A    between atoms: _193  and  _195
REMARK   83  A    between atoms: _195  and  _196
REMARK   84  A    between atoms: _195  and  _198
REMARK   85  A    between atoms: _198  and  _199
REMARK   86  A    between atoms: _199  and  _200
REMARK   87  A    between atoms: _202  and  _204
REMARK   88  A    between atoms: _204  and  _205
REMARK   89  A    between atoms: _204  and  _207
REMARK   90  A    between atoms: _207  and  _208
REMARK   91  A    between atoms: _218  and  _220
REMARK   92  A    between atoms: _220  and  _221
REMARK   93  A    between atoms: _220  and  _223
REMARK   94  A    between atoms: _223  and  _224
REMARK   95  A    between atoms: _227  and  _229
REMARK   96  A    between atoms: _229  and  _230
REMARK   97  A    between atoms: _229  and  _232
REMARK   98  A    between atoms: _232  and  _233
REMARK   99  A    between atoms: _233  and  _234
REMARK  100  A    between atoms: _234  and  _235
REMARK  101  A    between atoms: _235  and  _236
REMARK  102  A    between atoms: _240  and  _242
REMARK  103  A    between atoms: _242  and  _243
REMARK  104  A    between atoms: _242  and  _245
REMARK  105  A    between atoms: _245  and  _246
REMARK  106  A    between atoms: _246  and  _247
REMARK  107  A    between atoms: _247  and  _248
REMARK  108  A    between atoms: _257  and  _259
REMARK  109  A    between atoms: _259  and  _260
REMARK  110  A    between atoms: _262  and  _264
REMARK  111  A    between atoms: _264  and  _265
REMARK  112  A    between atoms: _264  and  _267
REMARK  113  A    between atoms: _267  and  _268
REMARK  114  A    between atoms: _271  and  _273
REMARK  115  A    between atoms: _273  and  _274
REMARK  116  A    between atoms: _273  and  _276
REMARK  117  A    between atoms: _276  and  _277
REMARK  118  A    between atoms: _277  and  _278
REMARK  119  A    between atoms: _278  and  _279
REMARK  120  A    between atoms: _288  and  _290
REMARK  121  A    between atoms: _290  and  _291
REMARK  122  A    between atoms: _290  and  _293
REMARK  123  A    between atoms: _293  and  _294
REMARK  124  A    between atoms: _300  and  _302
REMARK  125  A    between atoms: _302  and  _303
REMARK  126  A    between atoms: _302  and  _305
REMARK  127  A    between atoms: _305  and  _306
REMARK  128  A    between atoms: _309  and  _311
REMARK  129  A    between atoms: _311  and  _312
REMARK  130  A    between atoms: _311  and  _314
REMARK  131  A    between atoms: _314  and  _315
REMARK  132  A    between atoms: _321  and  _323
REMARK  133  A    between atoms: _323  and  _324
REMARK  134  A    between atoms: _323  and  _326
REMARK  135  A    between atoms: _326  and  _327
REMARK  136  A    between atoms: _330  and  _332
REMARK  137  A    between atoms: _332  and  _333
REMARK  138  A    between atoms: _332  and  _335
REMARK  139  A    between atoms: _335  and  _336
REMARK  140  A    between atoms: _339  and  _341
REMARK  141  A    between atoms: _341  and  _342
REMARK  142  A    between atoms: _341  and  _344
REMARK  143  A    between atoms: _344  and  _345
REMARK  144  A    between atoms: _348  and  _350
REMARK  145  A    between atoms: _350  and  _351
REMARK  146  A    between atoms: _350  and  _353
REMARK  147  A    between atoms: _353  and  _354
REMARK  148  A    between atoms: _354  and  _355
REMARK  149  A    between atoms: _355  and  _356
REMARK  150  A    between atoms: _365  and  _367
REMARK  151  A    between atoms: _367  and  _368
REMARK  152  A    between atoms: _367  and  _370
REMARK  153  A    between atoms: _370  and  _371
REMARK  154  A    between atoms: _376  and  _378
REMARK  155  A    between atoms: _378  and  _379
REMARK  156  A    between atoms: _382  and  _384
REMARK  157  A    between atoms: _384  and  _385
REMARK  158  A    between atoms: _384  and  _387
REMARK  159  A    between atoms: _387  and  _388
REMARK  160  A    between atoms: _391  and  _393
REMARK  161  A    between atoms: _393  and  _394
REMARK  162  A    between atoms: _397  and  _399
REMARK  163  A    between atoms: _399  and  _400
REMARK  164  A    between atoms: _399  and  _402
REMARK  165  A    between atoms: _402  and  _403
REMARK  166  A    between atoms: _408  and  _409
REMARK  167  A    between atoms: _411  and  _413
REMARK  168  A    between atoms: _413  and  _414
REMARK  169  A    between atoms: _417  and  _419
REMARK  170  A    between atoms: _419  and  _420
REMARK  171  A    between atoms: _419  and  _422
REMARK  172  A    between atoms: _422  and  _423
REMARK  173  A    between atoms: _426  and  _428
REMARK  174  A    between atoms: _428  and  _429
REMARK  175  A    between atoms: _428  and  _431
REMARK  176  A    between atoms: _431  and  _432
REMARK  177  A    between atoms: _432  and  _433
REMARK  178  A    between atoms: _433  and  _434
REMARK  179  A    between atoms: _434  and  _435
REMARK  180  A    between atoms: _439  and  _441
REMARK  181  A    between atoms: _441  and  _442
REMARK  182  A    between atoms: _441  and  _444
REMARK  183  A    between atoms: _444  and  _445
REMARK  184  A    between atoms: _450  and  _451
REMARK  185  A    between atoms: _453  and  _455
REMARK  186  A    between atoms: _455  and  _456
REMARK  187  A    between atoms: _455  and  _458
REMARK  188  A    between atoms: _458  and  _459
REMARK  189  A    between atoms: _464  and  _466
REMARK  190  A    between atoms: _466  and  _467
REMARK  191  A    between atoms: _469  and  _471
REMARK  192  A    between atoms: _471  and  _472
REMARK  193  A    between atoms: _471  and  _474
REMARK  194  A    between atoms: _474  and  _475
REMARK  195  A    between atoms: _478  and  _480
REMARK  196  A    between atoms: _480  and  _481
REMARK  197  A    between atoms: _480  and  _483
REMARK  198  A    between atoms: _486  and  _488
REMARK  199  A    between atoms: _488  and  _489
REMARK  200  A    between atoms: _488  and  _491
REMARK  201  A    between atoms: _491  and  _492
REMARK  202  A    between atoms: _495  and  _497
REMARK  203  A    between atoms: _497  and  _498
REMARK  204  A    between atoms: _497  and  _500
REMARK  205  A    between atoms: _500  and  _501
REMARK  206  A    between atoms: _507  and  _509
REMARK  207  A    between atoms: _509  and  _510
REMARK  208  A    between atoms: _509  and  _512
REMARK  209  A    between atoms: _512  and  _513
REMARK  210  A    between atoms: _513  and  _514
REMARK  211  A    between atoms: _519  and  _521
REMARK  212  A    between atoms: _521  and  _522
REMARK  213  A    between atoms: _525  and  _527
REMARK  214  A    between atoms: _527  and  _528
REMARK  215  A    between atoms: _531  and  _533
REMARK  216  A    between atoms: _533  and  _534
REMARK  217  A    between atoms: _533  and  _536
REMARK  218  A    between atoms: _536  and  _537
REMARK  219  A    between atoms: _540  and  _542
REMARK  220  A    between atoms: _542  and  _543
REMARK  221  A    between atoms: _542  and  _545
REMARK  222  A    between atoms: _545  and  _546
REMARK  223  A    between atoms: _551  and  _552
REMARK  224  A    between atoms: _554  and  _556
REMARK  225  A    between atoms: _556  and  _557
REMARK  226  A    between atoms: _560  and  _562
REMARK  227  A    between atoms: _562  and  _563
REMARK  228  A    between atoms: _567  and  _568
REMARK  229  A    between atoms: _573  and  _575
REMARK  230  A    between atoms: _575  and  _576
REMARK  231  A    between atoms: _575  and  _578
REMARK  232  A    between atoms: _578  and  _579
REMARK  233  A    between atoms: _585  and  _587
REMARK  234  A    between atoms: _587  and  _588
REMARK  235  A    between atoms: _587  and  _590
REMARK  236  A    between atoms: _590  and  _591
REMARK  237  A    between atoms: _596  and  _597
REMARK  238  A    between atoms: _599  and  _601
REMARK  239  A    between atoms: _601  and  _602
REMARK  240  A    between atoms: _601  and  _604
REMARK  241  A    between atoms: _604  and  _605
REMARK  242  A    between atoms: _605  and  _606
REMARK  243  A    between atoms: _606  and  _607
REMARK  244  A    between atoms: _607  and  _608
REMARK  245  A    between atoms: _612  and  _614
REMARK  246  A    between atoms: _614  and  _615
REMARK  247  A    between atoms: _614  and  _617
REMARK                            x       y       z     vdW  Elec       q    Type
REMARK                         _______ _______ _______ _____ _____    ______ ____
ROOT
ATOM      1  C   ALA A   5      11.965 -11.636  27.114  0.00  0.00    +0.241 C 
ATOM      2  O   ALA A   5      10.980 -10.990  27.467  0.00  0.00    -0.273 OA
ATOM      3  N   LEU A   6      11.897 -12.644  26.245  0.00  0.00    -0.297 N 
ATOM      4  H   LEU A   6      12.767 -13.163  26.009  0.00  0.00    +0.150 HD
ENDROOT
BRANCH   1   5
ATOM      5  CA  ALA A   5      13.349 -11.300  27.667  0.00  0.00    +0.149 C 
ATOM      6  CB  ALA A   5      13.948 -10.130  26.886  0.00  0.00    +0.031 C 
BRANCH   5   9
ATOM      7  C   ALA A   4      14.077 -13.549  28.346  0.00  0.00    +0.241 C 
ATOM      8  O   ALA A   4      13.083 -13.735  29.055  0.00  0.00    -0.273 OA
ATOM      9  N   ALA A   5      14.275 -12.439  27.641  0.00  0.00    -0.297 N 
ATOM     10  H   ALA A   5      15.124 -12.375  27.044  0.00  0.00    +0.150 HD
BRANCH   7  11
ATOM     11  CA  ALA A   4      15.170 -14.603  28.237  0.00  0.00    +0.149 C 
ATOM     12  CB  ALA A   4      16.385 -14.188  29.079  0.00  0.00    +0.031 C 
BRANCH  11  14
ATOM     13  C   GLN A   3      14.751 -15.412  25.972  0.00  0.00    +0.241 C 
ATOM     14  N   ALA A   4      15.561 -14.817  26.843  0.00  0.00    -0.297 N 
ATOM     15  H   ALA A   4      16.497 -14.495  26.525  0.00  0.00    +0.150 HD
ATOM     16  O   GLN A   3      13.695 -15.927  26.303  0.00  0.00    -0.273 OA
BRANCH  13  17
ATOM     17  CA  GLN A   3      15.204 -15.465  24.513  0.00  0.00    +0.149 C 
BRANCH  17  20
ATOM     18  C   PHE A   2      15.386 -13.072  24.169  0.00  0.00    +0.241 C 
ATOM     19  O   PHE A   2      14.228 -12.904  24.546  0.00  0.00    -0.273 OA
ATOM     20  N   GLN A   3      15.943 -14.273  24.101  0.00  0.00    -0.297 N 
ATOM     21  H   GLN A   3      16.917 -14.368  23.750  0.00  0.00    +0.150 HD
BRANCH  18  22
ATOM     22  CA  PHE A   2      16.268 -11.889  23.750  0.00  0.00    +0.153 C 
BRANCH  22  25
ATOM     23  C   ILE A   1      17.798 -12.049  25.630  0.00  0.00    +0.238 C 
ATOM     24  O   ILE A   1      16.857 -11.965  26.439  0.00  0.00    -0.274 OA
ATOM     25  N   PHE A   2      17.621 -11.968  24.314  0.00  0.00    -0.297 N 
ATOM     26  H   PHE A   2      18.446 -11.961  23.681  0.00  0.00    +0.150 HD
BRANCH  23  27
ATOM     27  CA  ILE A   1      19.233 -12.276  26.135  0.00  0.00    +0.145 C 
BRANCH  27  28
ATOM     28  N   ILE A   1      19.944 -13.279  25.325  0.00  0.00    -0.238 NA
ATOM     29  H   ILE A   1      20.783 -12.990  24.783  0.00  0.00    +0.142 HD
ENDBRANCH  27  28
BRANCH  27  30
ATOM     30  CB  ILE A   1      19.990 -10.929  26.215  0.00  0.00    +0.025 C 
ATOM     31  CG2 ILE A   1      19.147  -9.885  26.974  0.00  0.00    +0.002 C 
BRANCH  30  32
ATOM     32  CG1 ILE A   1      21.342 -11.107  26.932  0.00  0.00    +0.002 C 
ATOM     33  CD1 ILE A   1      22.273  -9.893  26.842  0.00  0.00    +0.000 C 
ENDBRANCH  30  32
ENDBRANCH  27  30
ENDBRANCH  23  27
ENDBRANCH  22  25
BRANCH  22  34
ATOM     34  CB  PHE A   2      16.285 -11.826  22.231  0.00  0.00    +0.055 C 
BRANCH  34  35
ATOM     35  CG  PHE A   2      14.931 -12.093  21.623  0.00  0.00    -0.020 A 
ATOM     36  CD2 PHE A   2      13.949 -11.112  21.639  0.00  0.00    -0.004 A 
ATOM     37  CE2 PHE A   2      12.689 -11.359  21.115  0.00  0.00    -0.000 A 
ATOM     38  CZ  PHE A   2      12.391 -12.604  20.571  0.00  0.00    -0.000 A 
ATOM     39  CE1 PHE A   2      13.350 -13.601  20.573  0.00  0.00    -0.000 A 
ATOM     40  CD1 PHE A   2      14.616 -13.346  21.099  0.00  0.00    -0.004 A 
ENDBRANCH  34  35
ENDBRANCH  22  34
ENDBRANCH  18  22
ENDBRANCH  17  20
BRANCH  17  41
ATOM     41  CB  GLN A   3      16.048 -16.715  24.291  0.00  0.00    +0.039 C 
BRANCH  41  42
ATOM     42  CG  GLN A   3      16.317 -17.022  22.846  0.00  0.00    +0.087 C 
BRANCH  42  43
ATOM     43  CD  GLN A   3      17.342 -18.097  22.683  0.00  0.00    +0.219 C 
ATOM     44  OE1 GLN A   3      17.460 -18.991  23.534  0.00  0.00    -0.275 OA
ATOM     45  NE2 GLN A   3      18.106 -18.032  21.589  0.00  0.00    -0.329 N 
ATOM     46 HE21 GLN A   3      18.838 -18.752  21.423  0.00  0.00    +0.145 HD
ATOM     47 HE22 GLN A   3      17.969 -17.262  20.904  0.00  0.00    +0.145 HD
ENDBRANCH  42  43
ENDBRANCH  41  42
ENDBRANCH  17  41
ENDBRANCH  13  17
ENDBRANCH  11  14
ENDBRANCH   7  11
ENDBRANCH   5   9
ENDBRANCH   1   5
BRANCH   3  48
ATOM     48  CA  LEU A   6      10.639 -13.045  25.611  0.00  0.00    +0.149 C 
BRANCH  48  49
ATOM     49  C   LEU A   6       9.619 -13.514  26.636  0.00  0.00    +0.241 C 
ATOM     50  N   TYR A   7      10.102 -14.049  27.750  0.00  0.00    -0.297 N 
ATOM     51  H   TYR A   7      11.131 -14.136  27.872  0.00  0.00    +0.150 HD
ATOM     52  O   LEU A   6       8.422 -13.379  26.436  0.00  0.00    -0.273 OA
BRANCH  50  53
ATOM     53  CA  TYR A   7       9.224 -14.511  28.793  0.00  0.00    +0.153 C 
BRANCH  53  54
ATOM     54  C   TYR A   7       8.593 -13.375  29.589  0.00  0.00    +0.241 C 
ATOM     55  O   TYR A   7       7.703 -13.623  30.387  0.00  0.00    -0.273 OA
ATOM     56  N   ALA A   8       9.066 -12.142  29.395  0.00  0.00    -0.297 N 
ATOM     57  H   ALA A   8       9.902 -12.011  28.791  0.00  0.00    +0.150 HD
BRANCH  56  58
ATOM     58  CA  ALA A   8       8.440 -10.966  30.010  0.00  0.00    +0.149 C 
ATOM     59  CB  ALA A   8       9.451  -9.838  30.140  0.00  0.00    +0.031 C 
BRANCH  58  60
ATOM     60  C   ALA A   8       7.196 -10.495  29.232  0.00  0.00    +0.241 C 
ATOM     61  O   ALA A   8       6.394  -9.720  29.745  0.00  0.00    -0.273 OA
ATOM     62  N   ALA A   9       7.044 -10.973  28.000  0.00  0.00    -0.297 N 
ATOM     63  H   ALA A   9       7.782 -11.597  27.614  0.00  0.00    +0.150 HD
BRANCH  62  64
ATOM     64  CA  ALA A   9       5.884 -10.660  27.163  0.00  0.00    +0.149 C 
ATOM     65  CB  ALA A   9       5.949 -11.446  25.875  0.00  0.00    +0.031 C 
BRANCH  64  66
ATOM     66  C   ALA A   9       4.555 -10.948  27.875  0.00  0.00    +0.244 C 
ATOM     67  O   ALA A   9       4.385 -12.028  28.446  0.00  0.00    -0.273 OA
ATOM     68  N   PRO A  10       3.604  -9.984  27.831  0.00  0.00    -0.273 N 
ATOM     69  CA  PRO A  10       2.301 -10.246  28.427  0.00  0.00    +0.140 C 
ATOM     70  CB  PRO A  10       1.641  -8.865  28.488  0.00  0.00    +0.030 C 
ATOM     71  CG  PRO A  10       2.334  -8.038  27.472  0.00  0.00    +0.024 C 
ATOM     72  CD  PRO A  10       3.689  -8.638  27.228  0.00  0.00    +0.094 C 
BRANCH  69  73
ATOM     73  C   PRO A  10       1.486 -11.225  27.592  0.00  0.00    +0.227 C 
ATOM     74  O   PRO A  10       1.961 -11.726  26.562  0.00  0.00    -0.286 OA
ENDBRANCH  69  73
ENDBRANCH  64  66
ENDBRANCH  62  64
ENDBRANCH  58  60
ENDBRANCH  56  58
ENDBRANCH  53  54
BRANCH  53  75
ATOM     75  CB  TYR A   7       9.982 -15.435  29.734  0.00  0.00    +0.055 C 
BRANCH  75  76
ATOM     76  CG  TYR A   7      10.258 -16.782  29.131  0.00  0.00    -0.020 A 
ATOM     77  CD2 TYR A   7      11.566 -17.218  28.923  0.00  0.00    -0.001 A 
ATOM     78  CE2 TYR A   7      11.826 -18.471  28.367  0.00  0.00    +0.036 A 
ATOM     79  CZ  TYR A   7      10.764 -19.291  28.023  0.00  0.00    +0.134 A 
ATOM     80  CE1 TYR A   7       9.451 -18.873  28.215  0.00  0.00    +0.036 A 
ATOM     81  CD1 TYR A   7       9.207 -17.632  28.775  0.00  0.00    -0.001 A 
BRANCH  79  82
ATOM     82  OH  TYR A   7      11.019 -20.526  27.480  0.00  0.00    -0.506 OA
ATOM     83  HH  TYR A   7      10.163 -20.985  27.291  0.00  0.00    +0.292 HD
ENDBRANCH  79  82
ENDBRANCH  75  76
ENDBRANCH  53  75
ENDBRANCH  50  53
ENDBRANCH  48  49
BRANCH  48  84
ATOM     84  CB  LEU A   6      10.904 -14.143  24.584  0.00  0.00    +0.029 C 
BRANCH  84  85
ATOM     85  CG  LEU A   6       9.758 -14.658  23.722  0.00  0.00    +0.002 C 
ATOM     86  CD2 LEU A   6       9.141 -13.562  22.885  0.00  0.00    +0.000 C 
ATOM     87  CD1 LEU A   6      10.282 -15.773  22.830  0.00  0.00    +0.000 C 
ENDBRANCH  84  85
ENDBRANCH  48  84
ENDBRANCH   3  48
TORSDOF 31
REMARK  Name = ../refined-set-2016/2evl/2evl_pocket.pdb
REMARK  247 active torsions:
REMARK  status: ('A' for Active; 'I' for Inactive)
REMARK    1  A    between atoms: _1  and  _3
REMARK    2  A    between atoms: _3  and  _4
REMARK    3  A    between atoms: _3  and  _6
REMARK    4  A    between atoms: _6  and  _7
REMARK    5  A    between atoms: _13  and  _15
REMARK    6  A    between atoms: _15  and  _16
REMARK    7  A    between atoms: _15  and  _18
REMARK    8  A    between atoms: _18  and  _19
REMARK    9  A    between atoms: _22  and  _24
REMARK   10  A    between atoms: _24  and  _25
REMARK   11  A    between atoms: _24  and  _27
REMARK   12  A    between atoms: _30  and  _32
REMARK   13  A    between atoms: _32  and  _33
REMARK   14  A    between atoms: _32  and  _35
REMARK   15  A    between atoms: _35  and  _36
REMARK   16  A    between atoms: _42  and  _44
REMARK   17  A    between atoms: _44  and  _45
REMARK   18  A    between atoms: _44  and  _47
REMARK   19  A    between atoms: _47  and  _48
REMARK   20  A    between atoms: _52  and  _53
REMARK   21  A    between atoms: _58  and  _60
REMARK   22  A    between atoms: _60  and  _61
REMARK   23  A    between atoms: _60  and  _63
REMARK   24  A    between atoms: _63  and  _64
REMARK   25  A    between atoms: _67  and  _69
REMARK   26  A    between atoms: _69  and  _70
REMARK   27  A    between atoms: _69  and  _72
REMARK   28  A    between atoms: _72  and  _73
REMARK   29  A    between atoms: _73  and  _74
REMARK   30  A    between atoms: _74  and  _75
REMARK   31  A    between atoms: _75  and  _76
REMARK   32  A    between atoms: _80  and  _82
REMARK   33  A    between atoms: _82  and  _83
REMARK   34  A    between atoms: _86  and  _88
REMARK   35  A    between atoms: _88  and  _89
REMARK   36  A    between atoms: _88  and  _91
REMARK   37  A    between atoms: _91  and  _92
REMARK   38  A    between atoms: _95  and  _97
REMARK   39  A    between atoms: _97  and  _98
REMARK   40  A    between atoms: _97  and  _100
REMARK   41  A    between atoms: _100  and  _101
REMARK   42  A    between atoms: _104  and  _106
REMARK   43  A    between atoms: _106  and  _107
REMARK   44  A    between atoms: _109  and  _111
REMARK   45  A    between atoms: _111  and  _112
REMARK   46  A    between atoms: _111  and  _114
REMARK   47  A    between atoms: _114  and  _115
REMARK   48  A    between atoms: _120  and  _122
REMARK   49  A    between atoms: _122  and  _123
REMARK   50  A    between atoms: _122  and  _125
REMARK   51  A    between atoms: _125  and  _126
REMARK   52  A    between atoms: _129  and  _131
REMARK   53  A    between atoms: _131  and  _132
REMARK   54  A    between atoms: _131  and  _134
REMARK   55  A    between atoms: _134  and  _135
REMARK   56  A    between atoms: _135  and  _136
REMARK   57  A    between atoms: _136  and  _137
REMARK   58  A    between atoms: _137  and  _138
REMARK   59  A    between atoms: _142  and  _144
REMARK   60  A    between atoms: _144  and  _145
REMARK   61  A    between atoms: _144  and  _147
REMARK   62  A    between atoms: _147  and  _148
REMARK   63  A    between atoms: _151  and  _153
REMARK   64  A    between atoms: _153  and  _154
REMARK   65  A    between atoms: _153  and  _156
REMARK   66  A    between atoms: _156  and  _157
REMARK   67  A    between atoms: _157  and  _158
REMARK   68  A    between atoms: _158  and  _159
REMARK   69  A    between atoms: _159  and  _160
REMARK   70  A    between atoms: _164  and  _166
REMARK   71  A    between atoms: _166  and  _167
REMARK   72  A    between atoms: _169  and  _171
REMARK   73  A    between atoms: _171  and  _172
REMARK   74  A    between atoms: _171  and  _174
REMARK   75  A    between atoms: _174  and  _175
REMARK   76  A    between atoms: _178  and  _180
REMARK   77  A    between atoms: _180  and  _181
REMARK   78  A    between atoms: _184  and  _186
REMARK   79  A    between atoms: _186  and  _187
REMARK   80  A    between atoms: _186  and  _189
REMARK   81  A    between atoms: _189  and  _190
REMARK   82  A    between atoms: _193  and  _195
REMARK   83  A    between atoms: _195  and  _196
REMARK   84  A    between atoms: _195  and  _198
REMARK   85  A    between atoms: _198  and  _199
REMARK   86  A    between atoms: _199  and  _200
REMARK   87  A    between atoms: _202  and  _204
REMARK   88  A    between atoms: _204  and  _205
REMARK   89  A    between atoms: _204  and  _207
REMARK   90  A    between atoms: _207  and  _208
REMARK   91  A    between atoms: _218  and  _220
REMARK   92  A    between atoms: _220  and  _221
REMARK   93  A    between atoms: _220  and  _223
REMARK   94  A    between atoms: _223  and  _224
REMARK   95  A    between atoms: _227  and  _229
REMARK   96  A    between atoms: _229  and  _230
REMARK   97  A    between atoms: _229  and  _232
REMARK   98  A    between atoms: _232  and  _233
REMARK   99  A    between atoms: _233  and  _234
REMARK  100  A    between atoms: _234  and  _235
REMARK  101  A    between atoms: _235  and  _236
REMARK  102  A    between atoms: _240  and  _242
REMARK  103  A    between atoms: _242  and  _243
REMARK  104  A    between atoms: _242  and  _245
REMARK  105  A    between atoms: _245  and  _246
REMARK  106  A    between atoms: _246  and  _247
REMARK  107  A    between atoms: _247  and  _248
REMARK  108  A    between atoms: _257  and  _259
REMARK  109  A    between atoms: _259  and  _260
REMARK  110  A    between atoms: _262  and  _264
REMARK  111  A    between atoms: _264  and  _265
REMARK  112  A    between atoms: _264  and  _267
REMARK  113  A    between atoms: _267  and  _268
REMARK  114  A    between atoms: _271  and  _273
REMARK  115  A    between atoms: _273  and  _274
REMARK  116  A    between atoms: _273  and  _276
REMARK  117  A    between atoms: _276  and  _277
REMARK  118  A    between atoms: _277  and  _278
REMARK  119  A    between atoms: _278  and  _279
REMARK  120  A    between atoms: _288  and  _290
REMARK  121  A    between atoms: _290  and  _291
REMARK  122  A    between atoms: _290  and  _293
REMARK  123  A    between atoms: _293  and  _294
REMARK  124  A    between atoms: _300  and  _302
REMARK  125  A    between atoms: _302  and  _303
REMARK  126  A    between atoms: _302  and  _305
REMARK  127  A    between atoms: _305  and  _306
REMARK  128  A    between atoms: _309  and  _311
REMARK  129  A    between atoms: _311  and  _312
REMARK  130  A    between atoms: _311  and  _314
REMARK  131  A    between atoms: _314  and  _315
REMARK  132  A    between atoms: _321  and  _323
REMARK  133  A    between atoms: _323  and  _324
REMARK  134  A    between atoms: _323  and  _326
REMARK  135  A    between atoms: _326  and  _327
REMARK  136  A    between atoms: _330  and  _332
REMARK  137  A    between atoms: _332  and  _333
REMARK  138  A    between atoms: _332  and  _335
REMARK  139  A    between atoms: _335  and  _336
REMARK  140  A    between atoms: _339  and  _341
REMARK  141  A    between atoms: _341  and  _342
REMARK  142  A    between atoms: _341  and  _344
REMARK  143  A    between atoms: _344  and  _345
REMARK  144  A    between atoms: _348  and  _350
REMARK  145  A    between atoms: _350  and  _351
REMARK  146  A    between atoms: _350  and  _353
REMARK  147  A    between atoms: _353  and  _354
REMARK  148  A    between atoms: _354  and  _355
REMARK  149  A    between atoms: _355  and  _356
REMARK  150  A    between atoms: _365  and  _367
REMARK  151  A    between atoms: _367  and  _368
REMARK  152  A    between atoms: _367  and  _370
REMARK  153  A    between atoms: _370  and  _371
REMARK  154  A    between atoms: _376  and  _378
REMARK  155  A    between atoms: _378  and  _379
REMARK  156  A    between atoms: _382  and  _384
REMARK  157  A    between atoms: _384  and  _385
REMARK  158  A    between atoms: _384  and  _387
REMARK  159  A    between atoms: _387  and  _388
REMARK  160  A    between atoms: _391  and  _393
REMARK  161  A    between atoms: _393  and  _394
REMARK  162  A    between atoms: _397  and  _399
REMARK  163  A    between atoms: _399  and  _400
REMARK  164  A    between atoms: _399  and  _402
REMARK  165  A    between atoms: _402  and  _403
REMARK  166  A    between atoms: _408  and  _409
REMARK  167  A    between atoms: _411  and  _413
REMARK  168  A    between atoms: _413  and  _414
REMARK  169  A    between atoms: _417  and  _419
REMARK  170  A    between atoms: _419  and  _420
REMARK  171  A    between atoms: _419  and  _422
REMARK  172  A    between atoms: _422  and  _423
REMARK  173  A    between atoms: _426  and  _428
REMARK  174  A    between atoms: _428  and  _429
REMARK  175  A    between atoms: _428  and  _431
REMARK  176  A    between atoms: _431  and  _432
REMARK  177  A    between atoms: _432  and  _433
REMARK  178  A    between atoms: _433  and  _434
REMARK  179  A    between atoms: _434  and  _435
REMARK  180  A    between atoms: _439  and  _441
REMARK  181  A    between atoms: _441  and  _442
REMARK  182  A    between atoms: _441  and  _444
REMARK  183  A    between atoms: _444  and  _445
REMARK  184  A    between atoms: _450  and  _451
REMARK  185  A    between atoms: _453  and  _455
REMARK  186  A    between atoms: _455  and  _456
REMARK  187  A    between atoms: _455  and  _458
REMARK  188  A    between atoms: _458  and  _459
REMARK  189  A    between atoms: _464  and  _466
REMARK  190  A    between atoms: _466  and  _467
REMARK  191  A    between atoms: _469  and  _471
REMARK  192  A    between atoms: _471  and  _472
REMARK  193  A    between atoms: _471  and  _474
REMARK  194  A    between atoms: _474  and  _475
REMARK  195  A    between atoms: _478  and  _480
REMARK  196  A    between atoms: _480  and  _481
REMARK  197  A    between atoms: _480  and  _483
REMARK  198  A    between atoms: _486  and  _488
REMARK  199  A    between atoms: _488  and  _489
REMARK  200  A    between atoms: _488  and  _491
REMARK  201  A    between atoms: _491  and  _492
REMARK  202  A    between atoms: _495  and  _497
REMARK  203  A    between atoms: _497  and  _498
REMARK  204  A    between atoms: _497  and  _500
REMARK  205  A    between atoms: _500  and  _501
REMARK  206  A    between atoms: _507  and  _509
REMARK  207  A    between atoms: _509  and  _510
REMARK  208  A    between atoms: _509  and  _512
REMARK  209  A    between atoms: _512  and  _513
REMARK  210  A    between atoms: _513  and  _514
REMARK  211  A    between atoms: _519  and  _521
REMARK  212  A    between atoms: _521  and  _522
REMARK  213  A    between atoms: _525  and  _527
REMARK  214  A    between atoms: _527  and  _528
REMARK  215  A    between atoms: _531  and  _533
REMARK  216  A    between atoms: _533  and  _534
REMARK  217  A    between atoms: _533  and  _536
REMARK  218  A    between atoms: _536  and  _537
REMARK  219  A    between atoms: _540  and  _542
REMARK  220  A    between atoms: _542  and  _543
REMARK  221  A    between atoms: _542  and  _545
REMARK  222  A    between atoms: _545  and  _546
REMARK  223  A    between atoms: _551  and  _552
REMARK  224  A    between atoms: _554  and  _556
REMARK  225  A    between atoms: _556  and  _557
REMARK  226  A    between atoms: _560  and  _562
REMARK  227  A    between atoms: _562  and  _563
REMARK  228  A    between atoms: _567  and  _568
REMARK  229  A    between atoms: _573  and  _575
REMARK  230  A    between atoms: _575  and  _576
REMARK  231  A    between atoms: _575  and  _578
REMARK  232  A    between atoms: _578  and  _579
REMARK  233  A    between atoms: _585  and  _587
REMARK  234  A    between atoms: _587  and  _588
REMARK  235  A    between atoms: _587  and  _590
REMARK  236  A    between atoms: _590  and  _591
REMARK  237  A    between atoms: _596  and  _597
REMARK  238  A    between atoms: _599  and  _601
REMARK  239  A    between atoms: _601  and  _602
REMARK  240  A    between atoms: _601  and  _604
REMARK  241  A    between atoms: _604  and  _605
REMARK  242  A    between atoms: _605  and  _606
REMARK  243  A    between atoms: _606  and  _607
REMARK  244  A    between atoms: _607  and  _608
REMARK  245  A    between atoms: _612  and  _614
REMARK  246  A    between atoms: _614  and  _615
REMARK  247  A    between atoms: _614  and  _617
REMARK                            x       y       z     vdW  Elec       q    Type
REMARK                         _______ _______ _______ _____ _____    ______ ____
ROOT
ATOM      1  CB  PHE A   1      -0.572  -7.475  24.512  0.00  0.00    +0.051 C 
ENDROOT
BRANCH   1   2
ATOM      2  CG  PHE A   1       0.132  -6.642  23.486  0.00  0.00    -0.020 A 
ATOM      3  CD2 PHE A   1       1.181  -5.809  23.855  0.00  0.00    -0.004 A 
ATOM      4  CE2 PHE A   1       1.843  -5.026  22.913  0.00  0.00    -0.000 A 
ATOM      5  CZ  PHE A   1       1.451  -5.072  21.588  0.00  0.00    -0.000 A 
ATOM      6  CE1 PHE A   1       0.395  -5.906  21.206  0.00  0.00    -0.000 A 
ATOM      7  CD1 PHE A   1      -0.253  -6.684  22.155  0.00  0.00    -0.004 A 
ENDBRANCH   1   2
BRANCH   1   8
ATOM      8  CA  PHE A   1      -1.437  -6.661  25.484  0.00  0.00    +0.137 C 
BRANCH   8   9
ATOM      9  N   PHE A   1      -2.183  -7.554  26.372  0.00  0.00    -0.239 NA
ATOM     10  H   PHE A   1      -2.162  -8.576  26.180  0.00  0.00    +0.142 HD
ENDBRANCH   8   9
BRANCH   8  11
ATOM     11  C   PHE A   1      -2.388  -5.768  24.703  0.00  0.00    +0.224 C 
ATOM     12  O   PHE A   1      -2.185  -4.553  24.619  0.00  0.00    -0.287 OA
ENDBRANCH   8  11
ENDBRANCH   1   8
TORSDOF 4
REMARK  Name = ../refined-set-2016/2evl/2evl_pocket.pdb
REMARK  247 active torsions:
REMARK  status: ('A' for Active; 'I' for Inactive)
REMARK    1  A    between atoms: _1  and  _3
REMARK    2  A    between atoms: _3  and  _4
REMARK    3  A    between atoms: _3  and  _6
REMARK    4  A    between atoms: _6  and  _7
REMARK    5  A    between atoms: _13  and  _15
REMARK    6  A    between atoms: _15  and  _16
REMARK    7  A    between atoms: _15  and  _18
REMARK    8  A    between atoms: _18  and  _19
REMARK    9  A    between atoms: _22  and  _24
REMARK   10  A    between atoms: _24  and  _25
REMARK   11  A    between atoms: _24  and  _27
REMARK   12  A    between atoms: _30  and  _32
REMARK   13  A    between atoms: _32  and  _33
REMARK   14  A    between atoms: _32  and  _35
REMARK   15  A    between atoms: _35  and  _36
REMARK   16  A    between atoms: _42  and  _44
REMARK   17  A    between atoms: _44  and  _45
REMARK   18  A    between atoms: _44  and  _47
REMARK   19  A    between atoms: _47  and  _48
REMARK   20  A    between atoms: _52  and  _53
REMARK   21  A    between atoms: _58  and  _60
REMARK   22  A    between atoms: _60  and  _61
REMARK   23  A    between atoms: _60  and  _63
REMARK   24  A    between atoms: _63  and  _64
REMARK   25  A    between atoms: _67  and  _69
REMARK   26  A    between atoms: _69  and  _70
REMARK   27  A    between atoms: _69  and  _72
REMARK   28  A    between atoms: _72  and  _73
REMARK   29  A    between atoms: _73  and  _74
REMARK   30  A    between atoms: _74  and  _75
REMARK   31  A    between atoms: _75  and  _76
REMARK   32  A    between atoms: _80  and  _82
REMARK   33  A    between atoms: _82  and  _83
REMARK   34  A    between atoms: _86  and  _88
REMARK   35  A    between atoms: _88  and  _89
REMARK   36  A    between atoms: _88  and  _91
REMARK   37  A    between atoms: _91  and  _92
REMARK   38  A    between atoms: _95  and  _97
REMARK   39  A    between atoms: _97  and  _98
REMARK   40  A    between atoms: _97  and  _100
REMARK   41  A    between atoms: _100  and  _101
REMARK   42  A    between atoms: _104  and  _106
REMARK   43  A    between atoms: _106  and  _107
REMARK   44  A    between atoms: _109  and  _111
REMARK   45  A    between atoms: _111  and  _112
REMARK   46  A    between atoms: _111  and  _114
REMARK   47  A    between atoms: _114  and  _115
REMARK   48  A    between atoms: _120  and  _122
REMARK   49  A    between atoms: _122  and  _123
REMARK   50  A    between atoms: _122  and  _125
REMARK   51  A    between atoms: _125  and  _126
REMARK   52  A    between atoms: _129  and  _131
REMARK   53  A    between atoms: _131  and  _132
REMARK   54  A    between atoms: _131  and  _134
REMARK   55  A    between atoms: _134  and  _135
REMARK   56  A    between atoms: _135  and  _136
REMARK   57  A    between atoms: _136  and  _137
REMARK   58  A    between atoms: _137  and  _138
REMARK   59  A    between atoms: _142  and  _144
REMARK   60  A    between atoms: _144  and  _145
REMARK   61  A    between atoms: _144  and  _147
REMARK   62  A    between atoms: _147  and  _148
REMARK   63  A    between atoms: _151  and  _153
REMARK   64  A    between atoms: _153  and  _154
REMARK   65  A    between atoms: _153  and  _156
REMARK   66  A    between atoms: _156  and  _157
REMARK   67  A    between atoms: _157  and  _158
REMARK   68  A    between atoms: _158  and  _159
REMARK   69  A    between atoms: _159  and  _160
REMARK   70  A    between atoms: _164  and  _166
REMARK   71  A    between atoms: _166  and  _167
REMARK   72  A    between atoms: _169  and  _171
REMARK   73  A    between atoms: _171  and  _172
REMARK   74  A    between atoms: _171  and  _174
REMARK   75  A    between atoms: _174  and  _175
REMARK   76  A    between atoms: _178  and  _180
REMARK   77  A    between atoms: _180  and  _181
REMARK   78  A    between atoms: _184  and  _186
REMARK   79  A    between atoms: _186  and  _187
REMARK   80  A    between atoms: _186  and  _189
REMARK   81  A    between atoms: _189  and  _190
REMARK   82  A    between atoms: _193  and  _195
REMARK   83  A    between atoms: _195  and  _196
REMARK   84  A    between atoms: _195  and  _198
REMARK   85  A    between atoms: _198  and  _199
REMARK   86  A    between atoms: _199  and  _200
REMARK   87  A    between atoms: _202  and  _204
REMARK   88  A    between atoms: _204  and  _205
REMARK   89  A    between atoms: _204  and  _207
REMARK   90  A    between atoms: _207  and  _208
REMARK   91  A    between atoms: _218  and  _220
REMARK   92  A    between atoms: _220  and  _221
REMARK   93  A    between atoms: _220  and  _223
REMARK   94  A    between atoms: _223  and  _224
REMARK   95  A    between atoms: _227  and  _229
REMARK   96  A    between atoms: _229  and  _230
REMARK   97  A    between atoms: _229  and  _232
REMARK   98  A    between atoms: _232  and  _233
REMARK   99  A    between atoms: _233  and  _234
REMARK  100  A    between atoms: _234  and  _235
REMARK  101  A    between atoms: _235  and  _236
REMARK  102  A    between atoms: _240  and  _242
REMARK  103  A    between atoms: _242  and  _243
REMARK  104  A    between atoms: _242  and  _245
REMARK  105  A    between atoms: _245  and  _246
REMARK  106  A    between atoms: _246  and  _247
REMARK  107  A    between atoms: _247  and  _248
REMARK  108  A    between atoms: _257  and  _259
REMARK  109  A    between atoms: _259  and  _260
REMARK  110  A    between atoms: _262  and  _264
REMARK  111  A    between atoms: _264  and  _265
REMARK  112  A    between atoms: _264  and  _267
REMARK  113  A    between atoms: _267  and  _268
REMARK  114  A    between atoms: _271  and  _273
REMARK  115  A    between atoms: _273  and  _274
REMARK  116  A    between atoms: _273  and  _276
REMARK  117  A    between atoms: _276  and  _277
REMARK  118  A    between atoms: _277  and  _278
REMARK  119  A    between atoms: _278  and  _279
REMARK  120  A    between atoms: _288  and  _290
REMARK  121  A    between atoms: _290  and  _291
REMARK  122  A    between atoms: _290  and  _293
REMARK  123  A    between atoms: _293  and  _294
REMARK  124  A    between atoms: _300  and  _302
REMARK  125  A    between atoms: _302  and  _303
REMARK  126  A    between atoms: _302  and  _305
REMARK  127  A    between atoms: _305  and  _306
REMARK  128  A    between atoms: _309  and  _311
REMARK  129  A    between atoms: _311  and  _312
REMARK  130  A    between atoms: _311  and  _314
REMARK  131  A    between atoms: _314  and  _315
REMARK  132  A    between atoms: _321  and  _323
REMARK  133  A    between atoms: _323  and  _324
REMARK  134  A    between atoms: _323  and  _326
REMARK  135  A    between atoms: _326  and  _327
REMARK  136  A    between atoms: _330  and  _332
REMARK  137  A    between atoms: _332  and  _333
REMARK  138  A    between atoms: _332  and  _335
REMARK  139  A    between atoms: _335  and  _336
REMARK  140  A    between atoms: _339  and  _341
REMARK  141  A    between atoms: _341  and  _342
REMARK  142  A    between atoms: _341  and  _344
REMARK  143  A    between atoms: _344  and  _345
REMARK  144  A    between atoms: _348  and  _350
REMARK  145  A    between atoms: _350  and  _351
REMARK  146  A    between atoms: _350  and  _353
REMARK  147  A    between atoms: _353  and  _354
REMARK  148  A    between atoms: _354  and  _355
REMARK  149  A    between atoms: _355  and  _356
REMARK  150  A    between atoms: _365  and  _367
REMARK  151  A    between atoms: _367  and  _368
REMARK  152  A    between atoms: _367  and  _370
REMARK  153  A    between atoms: _370  and  _371
REMARK  154  A    between atoms: _376  and  _378
REMARK  155  A    between atoms: _378  and  _379
REMARK  156  A    between atoms: _382  and  _384
REMARK  157  A    between atoms: _384  and  _385
REMARK  158  A    between atoms: _384  and  _387
REMARK  159  A    between atoms: _387  and  _388
REMARK  160  A    between atoms: _391  and  _393
REMARK  161  A    between atoms: _393  and  _394
REMARK  162  A    between atoms: _397  and  _399
REMARK  163  A    between atoms: _399  and  _400
REMARK  164  A    between atoms: _399  and  _402
REMARK  165  A    between atoms: _402  and  _403
REMARK  166  A    between atoms: _408  and  _409
REMARK  167  A    between atoms: _411  and  _413
REMARK  168  A    between atoms: _413  and  _414
REMARK  169  A    between atoms: _417  and  _419
REMARK  170  A    between atoms: _419  and  _420
REMARK  171  A    between atoms: _419  and  _422
REMARK  172  A    between atoms: _422  and  _423
REMARK  173  A    between atoms: _426  and  _428
REMARK  174  A    between atoms: _428  and  _429
REMARK  175  A    between atoms: _428  and  _431
REMARK  176  A    between atoms: _431  and  _432
REMARK  177  A    between atoms: _432  and  _433
REMARK  178  A    between atoms: _433  and  _434
REMARK  179  A    between atoms: _434  and  _435
REMARK  180  A    between atoms: _439  and  _441
REMARK  181  A    between atoms: _441  and  _442
REMARK  182  A    between atoms: _441  and  _444
REMARK  183  A    between atoms: _444  and  _445
REMARK  184  A    between atoms: _450  and  _451
REMARK  185  A    between atoms: _453  and  _455
REMARK  186  A    between atoms: _455  and  _456
REMARK  187  A    between atoms: _455  and  _458
REMARK  188  A    between atoms: _458  and  _459
REMARK  189  A    between atoms: _464  and  _466
REMARK  190  A    between atoms: _466  and  _467
REMARK  191  A    between atoms: _469  and  _471
REMARK  192  A    between atoms: _471  and  _472
REMARK  193  A    between atoms: _471  and  _474
REMARK  194  A    between atoms: _474  and  _475
REMARK  195  A    between atoms: _478  and  _480
REMARK  196  A    between atoms: _480  and  _481
REMARK  197  A    between atoms: _480  and  _483
REMARK  198  A    between atoms: _486  and  _488
REMARK  199  A    between atoms: _488  and  _489
REMARK  200  A    between atoms: _488  and  _491
REMARK  201  A    between atoms: _491  and  _492
REMARK  202  A    between atoms: _495  and  _497
REMARK  203  A    between atoms: _497  and  _498
REMARK  204  A    between atoms: _497  and  _500
REMARK  205  A    between atoms: _500  and  _501
REMARK  206  A    between atoms: _507  and  _509
REMARK  207  A    between atoms: _509  and  _510
REMARK  208  A    between atoms: _509  and  _512
REMARK  209  A    between atoms: _512  and  _513
REMARK  210  A    between atoms: _513  and  _514
REMARK  211  A    between atoms: _519  and  _521
REMARK  212  A    between atoms: _521  and  _522
REMARK  213  A    between atoms: _525  and  _527
REMARK  214  A    between atoms: _527  and  _528
REMARK  215  A    between atoms: _531  and  _533
REMARK  216  A    between atoms: _533  and  _534
REMARK  217  A    between atoms: _533  and  _536
REMARK  218  A    between atoms: _536  and  _537
REMARK  219  A    between atoms: _540  and  _542
REMARK  220  A    between atoms: _542  and  _543
REMARK  221  A    between atoms: _542  and  _545
REMARK  222  A    between atoms: _545  and  _546
REMARK  223  A    between atoms: _551  and  _552
REMARK  224  A    between atoms: _554  and  _556
REMARK  225  A    between atoms: _556  and  _557
REMARK  226  A    between atoms: _560  and  _562
REMARK  227  A    between atoms: _562  and  _563
REMARK  228  A    between atoms: _567  and  _568
REMARK  229  A    between atoms: _573  and  _575
REMARK  230  A    between atoms: _575  and  _576
REMARK  231  A    between atoms: _575  and  _578
REMARK  232  A    between atoms: _578  and  _579
REMARK  233  A    between atoms: _585  and  _587
REMARK  234  A    between atoms: _587  and  _588
REMARK  235  A    between atoms: _587  and  _590
REMARK  236  A    between atoms: _590  and  _591
REMARK  237  A    between atoms: _596  and  _597
REMARK  238  A    between atoms: _599  and  _601
REMARK  239  A    between atoms: _601  and  _602
REMARK  240  A    between atoms: _601  and  _604
REMARK  241  A    between atoms: _604  and  _605
REMARK  242  A    between atoms: _605  and  _606
REMARK  243  A    between atoms: _606  and  _607
REMARK  244  A    between atoms: _607  and  _608
REMARK  245  A    between atoms: _612  and  _614
REMARK  246  A    between atoms: _614  and  _615
REMARK  247  A    between atoms: _614  and  _617
REMARK                            x       y       z     vdW  Elec       q    Type
REMARK                         _______ _______ _______ _____ _____    ______ ____
ROOT
ATOM      1  CA  LYS A   2      26.625  -7.915  14.529  0.00  0.00    +0.149 C 
ENDROOT
BRANCH   1   3
ATOM      2  C   TYR A   1      26.967  -6.426  12.612  0.00  0.00    +0.239 C 
ATOM      3  N   LYS A   2      27.401  -7.395  13.411  0.00  0.00    -0.297 N 
ATOM      4  H   LYS A   2      28.341  -7.802  13.229  0.00  0.00    +0.150 HD
ATOM      5  O   TYR A   1      25.843  -5.918  12.697  0.00  0.00    -0.274 OA
BRANCH   2   6
ATOM      6  CA  TYR A   1      27.933  -6.002  11.512  0.00  0.00    +0.149 C 
BRANCH   6   7
ATOM      7  N   TYR A   1      27.166  -5.639  10.337  0.00  0.00    -0.238 NA
ATOM      8  H   TYR A   1      27.224  -4.679   9.941  0.00  0.00    +0.142 HD
ENDBRANCH   6   7
BRANCH   6   9
ATOM      9  CB  TYR A   1      28.863  -4.873  11.954  0.00  0.00    +0.053 C 
BRANCH   9  10
ATOM     10  CG  TYR A   1      28.189  -3.685  12.605  0.00  0.00    -0.020 A 
ATOM     11  CD2 TYR A   1      28.036  -3.622  13.978  0.00  0.00    -0.001 A 
ATOM     12  CE2 TYR A   1      27.433  -2.545  14.579  0.00  0.00    +0.036 A 
ATOM     13  CZ  TYR A   1      26.976  -1.490  13.807  0.00  0.00    +0.134 A 
ATOM     14  CE1 TYR A   1      27.118  -1.521  12.438  0.00  0.00    +0.036 A 
ATOM     15  CD1 TYR A   1      27.731  -2.612  11.845  0.00  0.00    -0.001 A 
BRANCH  13  16
ATOM     16  OH  TYR A   1      26.392  -0.405  14.430  0.00  0.00    -0.506 OA
ATOM     17  HH  TYR A   1      26.375  -0.557  15.408  0.00  0.00    +0.292 HD
ENDBRANCH  13  16
ENDBRANCH   9  10
ENDBRANCH   6   9
ENDBRANCH   2   6
ENDBRANCH   1   3
BRANCH   1  18
ATOM     18  C   LYS A   2      27.055  -7.228  15.821  0.00  0.00    +0.241 C 
ATOM     19  N   VAL A   3      26.186  -7.250  16.832  0.00  0.00    -0.295 N 
ATOM     20  H   VAL A   3      25.252  -7.685  16.689  0.00  0.00    +0.150 HD
ATOM     21  O   LYS A   2      28.168  -6.700  15.898  0.00  0.00    -0.273 OA
BRANCH  19  22
ATOM     22  CA  VAL A   3      26.514  -6.676  18.139  0.00  0.00    +0.176 C 
BRANCH  22  23
ATOM     23  C   VAL A   3      26.607  -7.725  19.242  0.00  0.00    +0.382 C 
ATOM     24  OXT VAL A   3      27.441  -7.544  20.123  0.00  0.00    -0.244 OA
ATOM     25  O   VAL A   3      25.919  -8.759  19.305  0.00  0.00    -0.244 OA
ENDBRANCH  22  23
BRANCH  22  26
ATOM     26  CB  VAL A   3      25.538  -5.517  18.565  0.00  0.00    +0.029 C 
ATOM     27  CG2 VAL A   3      24.083  -5.923  18.454  0.00  0.00    +0.002 C 
ATOM     28  CG1 VAL A   3      25.815  -4.250  17.739  0.00  0.00    +0.002 C 
ENDBRANCH  22  26
ENDBRANCH  19  22
ENDBRANCH   1  18
BRANCH   1  29
ATOM     29  CB  LYS A   2      26.855  -9.410  14.686  0.00  0.00    +0.029 C 
BRANCH  29  30
ATOM     30  CG  LYS A   2      26.208 -10.300  13.641  0.00  0.00    +0.000 C 
BRANCH  30  31
ATOM     31  CD  LYS A   2      26.270 -11.748  14.111  0.00  0.00    -0.024 C 
BRANCH  31  32
ATOM     32  CE  LYS A   2      25.931 -12.709  12.994  0.00  0.00    -0.086 C 
BRANCH  32  33
ATOM     33  NZ  LYS A   2      24.528 -12.552  12.515  0.00  0.00    +0.380 N 
ATOM     34  HZ1 LYS A   2      23.872 -12.730  13.302  0.00  0.00    -0.089 HD
ATOM     35  HZ2 LYS A   2      24.391 -11.584  12.160  0.00  0.00    -0.089 HD
ATOM     36  HZ3 LYS A   2      24.346 -13.233  11.750  0.00  0.00    -0.089 HD
ENDBRANCH  32  33
ENDBRANCH  31  32
ENDBRANCH  30  31
ENDBRANCH  29  30
ENDBRANCH   1  29
TORSDOF 15
REMARK  Name = ../refined-set-2016/2evl/2evl_pocket.pdb
REMARK  247 active torsions:
REMARK  status: ('A' for Active; 'I' for Inactive)
REMARK    1  A    between atoms: _1  and  _3
REMARK    2  A    between atoms: _3  and  _4
REMARK    3  A    between atoms: _3  and  _6
REMARK    4  A    between atoms: _6  and  _7
REMARK    5  A    between atoms: _13  and  _15
REMARK    6  A    between atoms: _15  and  _16
REMARK    7  A    between atoms: _15  and  _18
REMARK    8  A    between atoms: _18  and  _19
REMARK    9  A    between atoms: _22  and  _24
REMARK   10  A    between atoms: _24  and  _25
REMARK   11  A    between atoms: _24  and  _27
REMARK   12  A    between atoms: _30  and  _32
REMARK   13  A    between atoms: _32  and  _33
REMARK   14  A    between atoms: _32  and  _35
REMARK   15  A    between atoms: _35  and  _36
REMARK   16  A    between atoms: _42  and  _44
REMARK   17  A    between atoms: _44  and  _45
REMARK   18  A    between atoms: _44  and  _47
REMARK   19  A    between atoms: _47  and  _48
REMARK   20  A    between atoms: _52  and  _53
REMARK   21  A    between atoms: _58  and  _60
REMARK   22  A    between atoms: _60  and  _61
REMARK   23  A    between atoms: _60  and  _63
REMARK   24  A    between atoms: _63  and  _64
REMARK   25  A    between atoms: _67  and  _69
REMARK   26  A    between atoms: _69  and  _70
REMARK   27  A    between atoms: _69  and  _72
REMARK   28  A    between atoms: _72  and  _73
REMARK   29  A    between atoms: _73  and  _74
REMARK   30  A    between atoms: _74  and  _75
REMARK   31  A    between atoms: _75  and  _76
REMARK   32  A    between atoms: _80  and  _82
REMARK   33  A    between atoms: _82  and  _83
REMARK   34  A    between atoms: _86  and  _88
REMARK   35  A    between atoms: _88  and  _89
REMARK   36  A    between atoms: _88  and  _91
REMARK   37  A    between atoms: _91  and  _92
REMARK   38  A    between atoms: _95  and  _97
REMARK   39  A    between atoms: _97  and  _98
REMARK   40  A    between atoms: _97  and  _100
REMARK   41  A    between atoms: _100  and  _101
REMARK   42  A    between atoms: _104  and  _106
REMARK   43  A    between atoms: _106  and  _107
REMARK   44  A    between atoms: _109  and  _111
REMARK   45  A    between atoms: _111  and  _112
REMARK   46  A    between atoms: _111  and  _114
REMARK   47  A    between atoms: _114  and  _115
REMARK   48  A    between atoms: _120  and  _122
REMARK   49  A    between atoms: _122  and  _123
REMARK   50  A    between atoms: _122  and  _125
REMARK   51  A    between atoms: _125  and  _126
REMARK   52  A    between atoms: _129  and  _131
REMARK   53  A    between atoms: _131  and  _132
REMARK   54  A    between atoms: _131  and  _134
REMARK   55  A    between atoms: _134  and  _135
REMARK   56  A    between atoms: _135  and  _136
REMARK   57  A    between atoms: _136  and  _137
REMARK   58  A    between atoms: _137  and  _138
REMARK   59  A    between atoms: _142  and  _144
REMARK   60  A    between atoms: _144  and  _145
REMARK   61  A    between atoms: _144  and  _147
REMARK   62  A    between atoms: _147  and  _148
REMARK   63  A    between atoms: _151  and  _153
REMARK   64  A    between atoms: _153  and  _154
REMARK   65  A    between atoms: _153  and  _156
REMARK   66  A    between atoms: _156  and  _157
REMARK   67  A    between atoms: _157  and  _158
REMARK   68  A    between atoms: _158  and  _159
REMARK   69  A    between atoms: _159  and  _160
REMARK   70  A    between atoms: _164  and  _166
REMARK   71  A    between atoms: _166  and  _167
REMARK   72  A    between atoms: _169  and  _171
REMARK   73  A    between atoms: _171  and  _172
REMARK   74  A    between atoms: _171  and  _174
REMARK   75  A    between atoms: _174  and  _175
REMARK   76  A    between atoms: _178  and  _180
REMARK   77  A    between atoms: _180  and  _181
REMARK   78  A    between atoms: _184  and  _186
REMARK   79  A    between atoms: _186  and  _187
REMARK   80  A    between atoms: _186  and  _189
REMARK   81  A    between atoms: _189  and  _190
REMARK   82  A    between atoms: _193  and  _195
REMARK   83  A    between atoms: _195  and  _196
REMARK   84  A    between atoms: _195  and  _198
REMARK   85  A    between atoms: _198  and  _199
REMARK   86  A    between atoms: _199  and  _200
REMARK   87  A    between atoms: _202  and  _204
REMARK   88  A    between atoms: _204  and  _205
REMARK   89  A    between atoms: _204  and  _207
REMARK   90  A    between atoms: _207  and  _208
REMARK   91  A    between atoms: _218  and  _220
REMARK   92  A    between atoms: _220  and  _221
REMARK   93  A    between atoms: _220  and  _223
REMARK   94  A    between atoms: _223  and  _224
REMARK   95  A    between atoms: _227  and  _229
REMARK   96  A    between atoms: _229  and  _230
REMARK   97  A    between atoms: _229  and  _232
REMARK   98  A    between atoms: _232  and  _233
REMARK   99  A    between atoms: _233  and  _234
REMARK  100  A    between atoms: _234  and  _235
REMARK  101  A    between atoms: _235  and  _236
REMARK  102  A    between atoms: _240  and  _242
REMARK  103  A    between atoms: _242  and  _243
REMARK  104  A    between atoms: _242  and  _245
REMARK  105  A    between atoms: _245  and  _246
REMARK  106  A    between atoms: _246  and  _247
REMARK  107  A    between atoms: _247  and  _248
REMARK  108  A    between atoms: _257  and  _259
REMARK  109  A    between atoms: _259  and  _260
REMARK  110  A    between atoms: _262  and  _264
REMARK  111  A    between atoms: _264  and  _265
REMARK  112  A    between atoms: _264  and  _267
REMARK  113  A    between atoms: _267  and  _268
REMARK  114  A    between atoms: _271  and  _273
REMARK  115  A    between atoms: _273  and  _274
REMARK  116  A    between atoms: _273  and  _276
REMARK  117  A    between atoms: _276  and  _277
REMARK  118  A    between atoms: _277  and  _278
REMARK  119  A    between atoms: _278  and  _279
REMARK  120  A    between atoms: _288  and  _290
REMARK  121  A    between atoms: _290  and  _291
REMARK  122  A    between atoms: _290  and  _293
REMARK  123  A    between atoms: _293  and  _294
REMARK  124  A    between atoms: _300  and  _302
REMARK  125  A    between atoms: _302  and  _303
REMARK  126  A    between atoms: _302  and  _305
REMARK  127  A    between atoms: _305  and  _306
REMARK  128  A    between atoms: _309  and  _311
REMARK  129  A    between atoms: _311  and  _312
REMARK  130  A    between atoms: _311  and  _314
REMARK  131  A    between atoms: _314  and  _315
REMARK  132  A    between atoms: _321  and  _323
REMARK  133  A    between atoms: _323  and  _324
REMARK  134  A    between atoms: _323  and  _326
REMARK  135  A    between atoms: _326  and  _327
REMARK  136  A    between atoms: _330  and  _332
REMARK  137  A    between atoms: _332  and  _333
REMARK  138  A    between atoms: _332  and  _335
REMARK  139  A    between atoms: _335  and  _336
REMARK  140  A    between atoms: _339  and  _341
REMARK  141  A    between atoms: _341  and  _342
REMARK  142  A    between atoms: _341  and  _344
REMARK  143  A    between atoms: _344  and  _345
REMARK  144  A    between atoms: _348  and  _350
REMARK  145  A    between atoms: _350  and  _351
REMARK  146  A    between atoms: _350  and  _353
REMARK  147  A    between atoms: _353  and  _354
REMARK  148  A    between atoms: _354  and  _355
REMARK  149  A    between atoms: _355  and  _356
REMARK  150  A    between atoms: _365  and  _367
REMARK  151  A    between atoms: _367  and  _368
REMARK  152  A    between atoms: _367  and  _370
REMARK  153  A    between atoms: _370  and  _371
REMARK  154  A    between atoms: _376  and  _378
REMARK  155  A    between atoms: _378  and  _379
REMARK  156  A    between atoms: _382  and  _384
REMARK  157  A    between atoms: _384  and  _385
REMARK  158  A    between atoms: _384  and  _387
REMARK  159  A    between atoms: _387  and  _388
REMARK  160  A    between atoms: _391  and  _393
REMARK  161  A    between atoms: _393  and  _394
REMARK  162  A    between atoms: _397  and  _399
REMARK  163  A    between atoms: _399  and  _400
REMARK  164  A    between atoms: _399  and  _402
REMARK  165  A    between atoms: _402  and  _403
REMARK  166  A    between atoms: _408  and  _409
REMARK  167  A    between atoms: _411  and  _413
REMARK  168  A    between atoms: _413  and  _414
REMARK  169  A    between atoms: _417  and  _419
REMARK  170  A    between atoms: _419  and  _420
REMARK  171  A    between atoms: _419  and  _422
REMARK  172  A    between atoms: _422  and  _423
REMARK  173  A    between atoms: _426  and  _428
REMARK  174  A    between atoms: _428  and  _429
REMARK  175  A    between atoms: _428  and  _431
REMARK  176  A    between atoms: _431  and  _432
REMARK  177  A    between atoms: _432  and  _433
REMARK  178  A    between atoms: _433  and  _434
REMARK  179  A    between atoms: _434  and  _435
REMARK  180  A    between atoms: _439  and  _441
REMARK  181  A    between atoms: _441  and  _442
REMARK  182  A    between atoms: _441  and  _444
REMARK  183  A    between atoms: _444  and  _445
REMARK  184  A    between atoms: _450  and  _451
REMARK  185  A    between atoms: _453  and  _455
REMARK  186  A    between atoms: _455  and  _456
REMARK  187  A    between atoms: _455  and  _458
REMARK  188  A    between atoms: _458  and  _459
REMARK  189  A    between atoms: _464  and  _466
REMARK  190  A    between atoms: _466  and  _467
REMARK  191  A    between atoms: _469  and  _471
REMARK  192  A    between atoms: _471  and  _472
REMARK  193  A    between atoms: _471  and  _474
REMARK  194  A    between atoms: _474  and  _475
REMARK  195  A    between atoms: _478  and  _480
REMARK  196  A    between atoms: _480  and  _481
REMARK  197  A    between atoms: _480  and  _483
REMARK  198  A    between atoms: _486  and  _488
REMARK  199  A    between atoms: _488  and  _489
REMARK  200  A    between atoms: _488  and  _491
REMARK  201  A    between atoms: _491  and  _492
REMARK  202  A    between atoms: _495  and  _497
REMARK  203  A    between atoms: _497  and  _498
REMARK  204  A    between atoms: _497  and  _500
REMARK  205  A    between atoms: _500  and  _501
REMARK  206  A    between atoms: _507  and  _509
REMARK  207  A    between atoms: _509  and  _510
REMARK  208  A    between atoms: _509  and  _512
REMARK  209  A    between atoms: _512  and  _513
REMARK  210  A    between atoms: _513  and  _514
REMARK  211  A    between atoms: _519  and  _521
REMARK  212  A    between atoms: _521  and  _522
REMARK  213  A    between atoms: _525  and  _527
REMARK  214  A    between atoms: _527  and  _528
REMARK  215  A    between atoms: _531  and  _533
REMARK  216  A    between atoms: _533  and  _534
REMARK  217  A    between atoms: _533  and  _536
REMARK  218  A    between atoms: _536  and  _537
REMARK  219  A    between atoms: _540  and  _542
REMARK  220  A    between atoms: _542  and  _543
REMARK  221  A    between atoms: _542  and  _545
REMARK  222  A    between atoms: _545  and  _546
REMARK  223  A    between atoms: _551  and  _552
REMARK  224  A    between atoms: _554  and  _556
REMARK  225  A    between atoms: _556  and  _557
REMARK  226  A    between atoms: _560  and  _562
REMARK  227  A    between atoms: _562  and  _563
REMARK  228  A    between atoms: _567  and  _568
REMARK  229  A    between atoms: _573  and  _575
REMARK  230  A    between atoms: _575  and  _576
REMARK  231  A    between atoms: _575  and  _578
REMARK  232  A    between atoms: _578  and  _579
REMARK  233  A    between atoms: _585  and  _587
REMARK  234  A    between atoms: _587  and  _588
REMARK  235  A    between atoms: _587  and  _590
REMARK  236  A    between atoms: _590  and  _591
REMARK  237  A    between atoms: _596  and  _597
REMARK  238  A    between atoms: _599  and  _601
REMARK  239  A    between atoms: _601  and  _602
REMARK  240  A    between atoms: _601  and  _604
REMARK  241  A    between atoms: _604  and  _605
REMARK  242  A    between atoms: _605  and  _606
REMARK  243  A    between atoms: _606  and  _607
REMARK  244  A    between atoms: _607  and  _608
REMARK  245  A    between atoms: _612  and  _614
REMARK  246  A    between atoms: _614  and  _615
REMARK  247  A    between atoms: _614  and  _617
REMARK                            x       y       z     vdW  Elec       q    Type
REMARK                         _______ _______ _______ _____ _____    ______ ____
ROOT
ATOM      1  O   HOH     1      16.301   1.361  17.450  0.00  0.00    +0.000 OA
ENDROOT
TORSDOF 0
REMARK  Name = ../refined-set-2016/2evl/2evl_pocket.pdb
REMARK  247 active torsions:
REMARK  status: ('A' for Active; 'I' for Inactive)
REMARK    1  A    between atoms: _1  and  _3
REMARK    2  A    between atoms: _3  and  _4
REMARK    3  A    between atoms: _3  and  _6
REMARK    4  A    between atoms: _6  and  _7
REMARK    5  A    between atoms: _13  and  _15
REMARK    6  A    between atoms: _15  and  _16
REMARK    7  A    between atoms: _15  and  _18
REMARK    8  A    between atoms: _18  and  _19
REMARK    9  A    between atoms: _22  and  _24
REMARK   10  A    between atoms: _24  and  _25
REMARK   11  A    between atoms: _24  and  _27
REMARK   12  A    between atoms: _30  and  _32
REMARK   13  A    between atoms: _32  and  _33
REMARK   14  A    between atoms: _32  and  _35
REMARK   15  A    between atoms: _35  and  _36
REMARK   16  A    between atoms: _42  and  _44
REMARK   17  A    between atoms: _44  and  _45
REMARK   18  A    between atoms: _44  and  _47
REMARK   19  A    between atoms: _47  and  _48
REMARK   20  A    between atoms: _52  and  _53
REMARK   21  A    between atoms: _58  and  _60
REMARK   22  A    between atoms: _60  and  _61
REMARK   23  A    between atoms: _60  and  _63
REMARK   24  A    between atoms: _63  and  _64
REMARK   25  A    between atoms: _67  and  _69
REMARK   26  A    between atoms: _69  and  _70
REMARK   27  A    between atoms: _69  and  _72
REMARK   28  A    between atoms: _72  and  _73
REMARK   29  A    between atoms: _73  and  _74
REMARK   30  A    between atoms: _74  and  _75
REMARK   31  A    between atoms: _75  and  _76
REMARK   32  A    between atoms: _80  and  _82
REMARK   33  A    between atoms: _82  and  _83
REMARK   34  A    between atoms: _86  and  _88
REMARK   35  A    between atoms: _88  and  _89
REMARK   36  A    between atoms: _88  and  _91
REMARK   37  A    between atoms: _91  and  _92
REMARK   38  A    between atoms: _95  and  _97
REMARK   39  A    between atoms: _97  and  _98
REMARK   40  A    between atoms: _97  and  _100
REMARK   41  A    between atoms: _100  and  _101
REMARK   42  A    between atoms: _104  and  _106
REMARK   43  A    between atoms: _106  and  _107
REMARK   44  A    between atoms: _109  and  _111
REMARK   45  A    between atoms: _111  and  _112
REMARK   46  A    between atoms: _111  and  _114
REMARK   47  A    between atoms: _114  and  _115
REMARK   48  A    between atoms: _120  and  _122
REMARK   49  A    between atoms: _122  and  _123
REMARK   50  A    between atoms: _122  and  _125
REMARK   51  A    between atoms: _125  and  _126
REMARK   52  A    between atoms: _129  and  _131
REMARK   53  A    between atoms: _131  and  _132
REMARK   54  A    between atoms: _131  and  _134
REMARK   55  A    between atoms: _134  and  _135
REMARK   56  A    between atoms: _135  and  _136
REMARK   57  A    between atoms: _136  and  _137
REMARK   58  A    between atoms: _137  and  _138
REMARK   59  A    between atoms: _142  and  _144
REMARK   60  A    between atoms: _144  and  _145
REMARK   61  A    between atoms: _144  and  _147
REMARK   62  A    between atoms: _147  and  _148
REMARK   63  A    between atoms: _151  and  _153
REMARK   64  A    between atoms: _153  and  _154
REMARK   65  A    between atoms: _153  and  _156
REMARK   66  A    between atoms: _156  and  _157
REMARK   67  A    between atoms: _157  and  _158
REMARK   68  A    between atoms: _158  and  _159
REMARK   69  A    between atoms: _159  and  _160
REMARK   70  A    between atoms: _164  and  _166
REMARK   71  A    between atoms: _166  and  _167
REMARK   72  A    between atoms: _169  and  _171
REMARK   73  A    between atoms: _171  and  _172
REMARK   74  A    between atoms: _171  and  _174
REMARK   75  A    between atoms: _174  and  _175
REMARK   76  A    between atoms: _178  and  _180
REMARK   77  A    between atoms: _180  and  _181
REMARK   78  A    between atoms: _184  and  _186
REMARK   79  A    between atoms: _186  and  _187
REMARK   80  A    between atoms: _186  and  _189
REMARK   81  A    between atoms: _189  and  _190
REMARK   82  A    between atoms: _193  and  _195
REMARK   83  A    between atoms: _195  and  _196
REMARK   84  A    between atoms: _195  and  _198
REMARK   85  A    between atoms: _198  and  _199
REMARK   86  A    between atoms: _199  and  _200
REMARK   87  A    between atoms: _202  and  _204
REMARK   88  A    between atoms: _204  and  _205
REMARK   89  A    between atoms: _204  and  _207
REMARK   90  A    between atoms: _207  and  _208
REMARK   91  A    between atoms: _218  and  _220
REMARK   92  A    between atoms: _220  and  _221
REMARK   93  A    between atoms: _220  and  _223
REMARK   94  A    between atoms: _223  and  _224
REMARK   95  A    between atoms: _227  and  _229
REMARK   96  A    between atoms: _229  and  _230
REMARK   97  A    between atoms: _229  and  _232
REMARK   98  A    between atoms: _232  and  _233
REMARK   99  A    between atoms: _233  and  _234
REMARK  100  A    between atoms: _234  and  _235
REMARK  101  A    between atoms: _235  and  _236
REMARK  102  A    between atoms: _240  and  _242
REMARK  103  A    between atoms: _242  and  _243
REMARK  104  A    between atoms: _242  and  _245
REMARK  105  A    between atoms: _245  and  _246
REMARK  106  A    between atoms: _246  and  _247
REMARK  107  A    between atoms: _247  and  _248
REMARK  108  A    between atoms: _257  and  _259
REMARK  109  A    between atoms: _259  and  _260
REMARK  110  A    between atoms: _262  and  _264
REMARK  111  A    between atoms: _264  and  _265
REMARK  112  A    between atoms: _264  and  _267
REMARK  113  A    between atoms: _267  and  _268
REMARK  114  A    between atoms: _271  and  _273
REMARK  115  A    between atoms: _273  and  _274
REMARK  116  A    between atoms: _273  and  _276
REMARK  117  A    between atoms: _276  and  _277
REMARK  118  A    between atoms: _277  and  _278
REMARK  119  A    between atoms: _278  and  _279
REMARK  120  A    between atoms: _288  and  _290
REMARK  121  A    between atoms: _290  and  _291
REMARK  122  A    between atoms: _290  and  _293
REMARK  123  A    between atoms: _293  and  _294
REMARK  124  A    between atoms: _300  and  _302
REMARK  125  A    between atoms: _302  and  _303
REMARK  126  A    between atoms: _302  and  _305
REMARK  127  A    between atoms: _305  and  _306
REMARK  128  A    between atoms: _309  and  _311
REMARK  129  A    between atoms: _311  and  _312
REMARK  130  A    between atoms: _311  and  _314
REMARK  131  A    between atoms: _314  and  _315
REMARK  132  A    between atoms: _321  and  _323
REMARK  133  A    between atoms: _323  and  _324
REMARK  134  A    between atoms: _323  and  _326
REMARK  135  A    between atoms: _326  and  _327
REMARK  136  A    between atoms: _330  and  _332
REMARK  137  A    between atoms: _332  and  _333
REMARK  138  A    between atoms: _332  and  _335
REMARK  139  A    between atoms: _335  and  _336
REMARK  140  A    between atoms: _339  and  _341
REMARK  141  A    between atoms: _341  and  _342
REMARK  142  A    between atoms: _341  and  _344
REMARK  143  A    between atoms: _344  and  _345
REMARK  144  A    between atoms: _348  and  _350
REMARK  145  A    between atoms: _350  and  _351
REMARK  146  A    between atoms: _350  and  _353
REMARK  147  A    between atoms: _353  and  _354
REMARK  148  A    between atoms: _354  and  _355
REMARK  149  A    between atoms: _355  and  _356
REMARK  150  A    between atoms: _365  and  _367
REMARK  151  A    between atoms: _367  and  _368
REMARK  152  A    between atoms: _367  and  _370
REMARK  153  A    between atoms: _370  and  _371
REMARK  154  A    between atoms: _376  and  _378
REMARK  155  A    between atoms: _378  and  _379
REMARK  156  A    between atoms: _382  and  _384
REMARK  157  A    between atoms: _384  and  _385
REMARK  158  A    between atoms: _384  and  _387
REMARK  159  A    between atoms: _387  and  _388
REMARK  160  A    between atoms: _391  and  _393
REMARK  161  A    between atoms: _393  and  _394
REMARK  162  A    between atoms: _397  and  _399
REMARK  163  A    between atoms: _399  and  _400
REMARK  164  A    between atoms: _399  and  _402
REMARK  165  A    between atoms: _402  and  _403
REMARK  166  A    between atoms: _408  and  _409
REMARK  167  A    between atoms: _411  and  _413
REMARK  168  A    between atoms: _413  and  _414
REMARK  169  A    between atoms: _417  and  _419
REMARK  170  A    between atoms: _419  and  _420
REMARK  171  A    between atoms: _419  and  _422
REMARK  172  A    between atoms: _422  and  _423
REMARK  173  A    between atoms: _426  and  _428
REMARK  174  A    between atoms: _428  and  _429
REMARK  175  A    between atoms: _428  and  _431
REMARK  176  A    between atoms: _431  and  _432
REMARK  177  A    between atoms: _432  and  _433
REMARK  178  A    between atoms: _433  and  _434
REMARK  179  A    between atoms: _434  and  _435
REMARK  180  A    between atoms: _439  and  _441
REMARK  181  A    between atoms: _441  and  _442
REMARK  182  A    between atoms: _441  and  _444
REMARK  183  A    between atoms: _444  and  _445
REMARK  184  A    between atoms: _450  and  _451
REMARK  185  A    between atoms: _453  and  _455
REMARK  186  A    between atoms: _455  and  _456
REMARK  187  A    between atoms: _455  and  _458
REMARK  188  A    between atoms: _458  and  _459
REMARK  189  A    between atoms: _464  and  _466
REMARK  190  A    between atoms: _466  and  _467
REMARK  191  A    between atoms: _469  and  _471
REMARK  192  A    between atoms: _471  and  _472
REMARK  193  A    between atoms: _471  and  _474
REMARK  194  A    between atoms: _474  and  _475
REMARK  195  A    between atoms: _478  and  _480
REMARK  196  A    between atoms: _480  and  _481
REMARK  197  A    between atoms: _480  and  _483
REMARK  198  A    between atoms: _486  and  _488
REMARK  199  A    between atoms: _488  and  _489
REMARK  200  A    between atoms: _488  and  _491
REMARK  201  A    between atoms: _491  and  _492
REMARK  202  A    between atoms: _495  and  _497
REMARK  203  A    between atoms: _497  and  _498
REMARK  204  A    between atoms: _497  and  _500
REMARK  205  A    between atoms: _500  and  _501
REMARK  206  A    between atoms: _507  and  _509
REMARK  207  A    between atoms: _509  and  _510
REMARK  208  A    between atoms: _509  and  _512
REMARK  209  A    between atoms: _512  and  _513
REMARK  210  A    between atoms: _513  and  _514
REMARK  211  A    between atoms: _519  and  _521
REMARK  212  A    between atoms: _521  and  _522
REMARK  213  A    between atoms: _525  and  _527
REMARK  214  A    between atoms: _527  and  _528
REMARK  215  A    between atoms: _531  and  _533
REMARK  216  A    between atoms: _533  and  _534
REMARK  217  A    between atoms: _533  and  _536
REMARK  218  A    between atoms: _536  and  _537
REMARK  219  A    between atoms: _540  and  _542
REMARK  220  A    between atoms: _542  and  _543
REMARK  221  A    between atoms: _542  and  _545
REMARK  222  A    between atoms: _545  and  _546
REMARK  223  A    between atoms: _551  and  _552
REMARK  224  A    between atoms: _554  and  _556
REMARK  225  A    between atoms: _556  and  _557
REMARK  226  A    between atoms: _560  and  _562
REMARK  227  A    between atoms: _562  and  _563
REMARK  228  A    between atoms: _567  and  _568
REMARK  229  A    between atoms: _573  and  _575
REMARK  230  A    between atoms: _575  and  _576
REMARK  231  A    between atoms: _575  and  _578
REMARK  232  A    between atoms: _578  and  _579
REMARK  233  A    between atoms: _585  and  _587
REMARK  234  A    between atoms: _587  and  _588
REMARK  235  A    between atoms: _587  and  _590
REMARK  236  A    between atoms: _590  and  _591
REMARK  237  A    between atoms: _596  and  _597
REMARK  238  A    between atoms: _599  and  _601
REMARK  239  A    between atoms: _601  and  _602
REMARK  240  A    between atoms: _601  and  _604
REMARK  241  A    between atoms: _604  and  _605
REMARK  242  A    between atoms: _605  and  _606
REMARK  243  A    between atoms: _606  and  _607
REMARK  244  A    between atoms: _607  and  _608
REMARK  245  A    between atoms: _612  and  _614
REMARK  246  A    between atoms: _614  and  _615
REMARK  247  A    between atoms: _614  and  _617
REMARK                            x       y       z     vdW  Elec       q    Type
REMARK                         _______ _______ _______ _____ _____    ______ ____
ROOT
ATOM      1  O   HOH     1      24.563  -3.829  11.461  0.00  0.00    +0.000 OA
ENDROOT
TORSDOF 0
REMARK  Name = ../refined-set-2016/2evl/2evl_pocket.pdb
REMARK  247 active torsions:
REMARK  status: ('A' for Active; 'I' for Inactive)
REMARK    1  A    between atoms: _1  and  _3
REMARK    2  A    between atoms: _3  and  _4
REMARK    3  A    between atoms: _3  and  _6
REMARK    4  A    between atoms: _6  and  _7
REMARK    5  A    between atoms: _13  and  _15
REMARK    6  A    between atoms: _15  and  _16
REMARK    7  A    between atoms: _15  and  _18
REMARK    8  A    between atoms: _18  and  _19
REMARK    9  A    between atoms: _22  and  _24
REMARK   10  A    between atoms: _24  and  _25
REMARK   11  A    between atoms: _24  and  _27
REMARK   12  A    between atoms: _30  and  _32
REMARK   13  A    between atoms: _32  and  _33
REMARK   14  A    between atoms: _32  and  _35
REMARK   15  A    between atoms: _35  and  _36
REMARK   16  A    between atoms: _42  and  _44
REMARK   17  A    between atoms: _44  and  _45
REMARK   18  A    between atoms: _44  and  _47
REMARK   19  A    between atoms: _47  and  _48
REMARK   20  A    between atoms: _52  and  _53
REMARK   21  A    between atoms: _58  and  _60
REMARK   22  A    between atoms: _60  and  _61
REMARK   23  A    between atoms: _60  and  _63
REMARK   24  A    between atoms: _63  and  _64
REMARK   25  A    between atoms: _67  and  _69
REMARK   26  A    between atoms: _69  and  _70
REMARK   27  A    between atoms: _69  and  _72
REMARK   28  A    between atoms: _72  and  _73
REMARK   29  A    between atoms: _73  and  _74
REMARK   30  A    between atoms: _74  and  _75
REMARK   31  A    between atoms: _75  and  _76
REMARK   32  A    between atoms: _80  and  _82
REMARK   33  A    between atoms: _82  and  _83
REMARK   34  A    between atoms: _86  and  _88
REMARK   35  A    between atoms: _88  and  _89
REMARK   36  A    between atoms: _88  and  _91
REMARK   37  A    between atoms: _91  and  _92
REMARK   38  A    between atoms: _95  and  _97
REMARK   39  A    between atoms: _97  and  _98
REMARK   40  A    between atoms: _97  and  _100
REMARK   41  A    between atoms: _100  and  _101
REMARK   42  A    between atoms: _104  and  _106
REMARK   43  A    between atoms: _106  and  _107
REMARK   44  A    between atoms: _109  and  _111
REMARK   45  A    between atoms: _111  and  _112
REMARK   46  A    between atoms: _111  and  _114
REMARK   47  A    between atoms: _114  and  _115
REMARK   48  A    between atoms: _120  and  _122
REMARK   49  A    between atoms: _122  and  _123
REMARK   50  A    between atoms: _122  and  _125
REMARK   51  A    between atoms: _125  and  _126
REMARK   52  A    between atoms: _129  and  _131
REMARK   53  A    between atoms: _131  and  _132
REMARK   54  A    between atoms: _131  and  _134
REMARK   55  A    between atoms: _134  and  _135
REMARK   56  A    between atoms: _135  and  _136
REMARK   57  A    between atoms: _136  and  _137
REMARK   58  A    between atoms: _137  and  _138
REMARK   59  A    between atoms: _142  and  _144
REMARK   60  A    between atoms: _144  and  _145
REMARK   61  A    between atoms: _144  and  _147
REMARK   62  A    between atoms: _147  and  _148
REMARK   63  A    between atoms: _151  and  _153
REMARK   64  A    between atoms: _153  and  _154
REMARK   65  A    between atoms: _153  and  _156
REMARK   66  A    between atoms: _156  and  _157
REMARK   67  A    between atoms: _157  and  _158
REMARK   68  A    between atoms: _158  and  _159
REMARK   69  A    between atoms: _159  and  _160
REMARK   70  A    between atoms: _164  and  _166
REMARK   71  A    between atoms: _166  and  _167
REMARK   72  A    between atoms: _169  and  _171
REMARK   73  A    between atoms: _171  and  _172
REMARK   74  A    between atoms: _171  and  _174
REMARK   75  A    between atoms: _174  and  _175
REMARK   76  A    between atoms: _178  and  _180
REMARK   77  A    between atoms: _180  and  _181
REMARK   78  A    between atoms: _184  and  _186
REMARK   79  A    between atoms: _186  and  _187
REMARK   80  A    between atoms: _186  and  _189
REMARK   81  A    between atoms: _189  and  _190
REMARK   82  A    between atoms: _193  and  _195
REMARK   83  A    between atoms: _195  and  _196
REMARK   84  A    between atoms: _195  and  _198
REMARK   85  A    between atoms: _198  and  _199
REMARK   86  A    between atoms: _199  and  _200
REMARK   87  A    between atoms: _202  and  _204
REMARK   88  A    between atoms: _204  and  _205
REMARK   89  A    between atoms: _204  and  _207
REMARK   90  A    between atoms: _207  and  _208
REMARK   91  A    between atoms: _218  and  _220
REMARK   92  A    between atoms: _220  and  _221
REMARK   93  A    between atoms: _220  and  _223
REMARK   94  A    between atoms: _223  and  _224
REMARK   95  A    between atoms: _227  and  _229
REMARK   96  A    between atoms: _229  and  _230
REMARK   97  A    between atoms: _229  and  _232
REMARK   98  A    between atoms: _232  and  _233
REMARK   99  A    between atoms: _233  and  _234
REMARK  100  A    between atoms: _234  and  _235
REMARK  101  A    between atoms: _235  and  _236
REMARK  102  A    between atoms: _240  and  _242
REMARK  103  A    between atoms: _242  and  _243
REMARK  104  A    between atoms: _242  and  _245
REMARK  105  A    between atoms: _245  and  _246
REMARK  106  A    between atoms: _246  and  _247
REMARK  107  A    between atoms: _247  and  _248
REMARK  108  A    between atoms: _257  and  _259
REMARK  109  A    between atoms: _259  and  _260
REMARK  110  A    between atoms: _262  and  _264
REMARK  111  A    between atoms: _264  and  _265
REMARK  112  A    between atoms: _264  and  _267
REMARK  113  A    between atoms: _267  and  _268
REMARK  114  A    between atoms: _271  and  _273
REMARK  115  A    between atoms: _273  and  _274
REMARK  116  A    between atoms: _273  and  _276
REMARK  117  A    between atoms: _276  and  _277
REMARK  118  A    between atoms: _277  and  _278
REMARK  119  A    between atoms: _278  and  _279
REMARK  120  A    between atoms: _288  and  _290
REMARK  121  A    between atoms: _290  and  _291
REMARK  122  A    between atoms: _290  and  _293
REMARK  123  A    between atoms: _293  and  _294
REMARK  124  A    between atoms: _300  and  _302
REMARK  125  A    between atoms: _302  and  _303
REMARK  126  A    between atoms: _302  and  _305
REMARK  127  A    between atoms: _305  and  _306
REMARK  128  A    between atoms: _309  and  _311
REMARK  129  A    between atoms: _311  and  _312
REMARK  130  A    between atoms: _311  and  _314
REMARK  131  A    between atoms: _314  and  _315
REMARK  132  A    between atoms: _321  and  _323
REMARK  133  A    between atoms: _323  and  _324
REMARK  134  A    between atoms: _323  and  _326
REMARK  135  A    between atoms: _326  and  _327
REMARK  136  A    between atoms: _330  and  _332
REMARK  137  A    between atoms: _332  and  _333
REMARK  138  A    between atoms: _332  and  _335
REMARK  139  A    between atoms: _335  and  _336
REMARK  140  A    between atoms: _339  and  _341
REMARK  141  A    between atoms: _341  and  _342
REMARK  142  A    between atoms: _341  and  _344
REMARK  143  A    between atoms: _344  and  _345
REMARK  144  A    between atoms: _348  and  _350
REMARK  145  A    between atoms: _350  and  _351
REMARK  146  A    between atoms: _350  and  _353
REMARK  147  A    between atoms: _353  and  _354
REMARK  148  A    between atoms: _354  and  _355
REMARK  149  A    between atoms: _355  and  _356
REMARK  150  A    between atoms: _365  and  _367
REMARK  151  A    between atoms: _367  and  _368
REMARK  152  A    between atoms: _367  and  _370
REMARK  153  A    between atoms: _370  and  _371
REMARK  154  A    between atoms: _376  and  _378
REMARK  155  A    between atoms: _378  and  _379
REMARK  156  A    between atoms: _382  and  _384
REMARK  157  A    between atoms: _384  and  _385
REMARK  158  A    between atoms: _384  and  _387
REMARK  159  A    between atoms: _387  and  _388
REMARK  160  A    between atoms: _391  and  _393
REMARK  161  A    between atoms: _393  and  _394
REMARK  162  A    between atoms: _397  and  _399
REMARK  163  A    between atoms: _399  and  _400
REMARK  164  A    between atoms: _399  and  _402
REMARK  165  A    between atoms: _402  and  _403
REMARK  166  A    between atoms: _408  and  _409
REMARK  167  A    between atoms: _411  and  _413
REMARK  168  A    between atoms: _413  and  _414
REMARK  169  A    between atoms: _417  and  _419
REMARK  170  A    between atoms: _419  and  _420
REMARK  171  A    between atoms: _419  and  _422
REMARK  172  A    between atoms: _422  and  _423
REMARK  173  A    between atoms: _426  and  _428
REMARK  174  A    between atoms: _428  and  _429
REMARK  175  A    between atoms: _428  and  _431
REMARK  176  A    between atoms: _431  and  _432
REMARK  177  A    between atoms: _432  and  _433
REMARK  178  A    between atoms: _433  and  _434
REMARK  179  A    between atoms: _434  and  _435
REMARK  180  A    between atoms: _439  and  _441
REMARK  181  A    between atoms: _441  and  _442
REMARK  182  A    between atoms: _441  and  _444
REMARK  183  A    between atoms: _444  and  _445
REMARK  184  A    between atoms: _450  and  _451
REMARK  185  A    between atoms: _453  and  _455
REMARK  186  A    between atoms: _455  and  _456
REMARK  187  A    between atoms: _455  and  _458
REMARK  188  A    between atoms: _458  and  _459
REMARK  189  A    between atoms: _464  and  _466
REMARK  190  A    between atoms: _466  and  _467
REMARK  191  A    between atoms: _469  and  _471
REMARK  192  A    between atoms: _471  and  _472
REMARK  193  A    between atoms: _471  and  _474
REMARK  194  A    between atoms: _474  and  _475
REMARK  195  A    between atoms: _478  and  _480
REMARK  196  A    between atoms: _480  and  _481
REMARK  197  A    between atoms: _480  and  _483
REMARK  198  A    between atoms: _486  and  _488
REMARK  199  A    between atoms: _488  and  _489
REMARK  200  A    between atoms: _488  and  _491
REMARK  201  A    between atoms: _491  and  _492
REMARK  202  A    between atoms: _495  and  _497
REMARK  203  A    between atoms: _497  and  _498
REMARK  204  A    between atoms: _497  and  _500
REMARK  205  A    between atoms: _500  and  _501
REMARK  206  A    between atoms: _507  and  _509
REMARK  207  A    between atoms: _509  and  _510
REMARK  208  A    between atoms: _509  and  _512
REMARK  209  A    between atoms: _512  and  _513
REMARK  210  A    between atoms: _513  and  _514
REMARK  211  A    between atoms: _519  and  _521
REMARK  212  A    between atoms: _521  and  _522
REMARK  213  A    between atoms: _525  and  _527
REMARK  214  A    between atoms: _527  and  _528
REMARK  215  A    between atoms: _531  and  _533
REMARK  216  A    between atoms: _533  and  _534
REMARK  217  A    between atoms: _533  and  _536
REMARK  218  A    between atoms: _536  and  _537
REMARK  219  A    between atoms: _540  and  _542
REMARK  220  A    between atoms: _542  and  _543
REMARK  221  A    between atoms: _542  and  _545
REMARK  222  A    between atoms: _545  and  _546
REMARK  223  A    between atoms: _551  and  _552
REMARK  224  A    between atoms: _554  and  _556
REMARK  225  A    between atoms: _556  and  _557
REMARK  226  A    between atoms: _560  and  _562
REMARK  227  A    between atoms: _562  and  _563
REMARK  228  A    between atoms: _567  and  _568
REMARK  229  A    between atoms: _573  and  _575
REMARK  230  A    between atoms: _575  and  _576
REMARK  231  A    between atoms: _575  and  _578
REMARK  232  A    between atoms: _578  and  _579
REMARK  233  A    between atoms: _585  and  _587
REMARK  234  A    between atoms: _587  and  _588
REMARK  235  A    between atoms: _587  and  _590
REMARK  236  A    between atoms: _590  and  _591
REMARK  237  A    between atoms: _596  and  _597
REMARK  238  A    between atoms: _599  and  _601
REMARK  239  A    between atoms: _601  and  _602
REMARK  240  A    between atoms: _601  and  _604
REMARK  241  A    between atoms: _604  and  _605
REMARK  242  A    between atoms: _605  and  _606
REMARK  243  A    between atoms: _606  and  _607
REMARK  244  A    between atoms: _607  and  _608
REMARK  245  A    between atoms: _612  and  _614
REMARK  246  A    between atoms: _614  and  _615
REMARK  247  A    between atoms: _614  and  _617
REMARK                            x       y       z     vdW  Elec       q    Type
REMARK                         _______ _______ _______ _____ _____    ______ ____
ROOT
ATOM      1  O   HOH     1      20.261   4.169  20.873  0.00  0.00    +0.000 OA
ENDROOT
TORSDOF 0
REMARK  Name = ../refined-set-2016/2evl/2evl_pocket.pdb
REMARK  247 active torsions:
REMARK  status: ('A' for Active; 'I' for Inactive)
REMARK    1  A    between atoms: _1  and  _3
REMARK    2  A    between atoms: _3  and  _4
REMARK    3  A    between atoms: _3  and  _6
REMARK    4  A    between atoms: _6  and  _7
REMARK    5  A    between atoms: _13  and  _15
REMARK    6  A    between atoms: _15  and  _16
REMARK    7  A    between atoms: _15  and  _18
REMARK    8  A    between atoms: _18  and  _19
REMARK    9  A    between atoms: _22  and  _24
REMARK   10  A    between atoms: _24  and  _25
REMARK   11  A    between atoms: _24  and  _27
REMARK   12  A    between atoms: _30  and  _32
REMARK   13  A    between atoms: _32  and  _33
REMARK   14  A    between atoms: _32  and  _35
REMARK   15  A    between atoms: _35  and  _36
REMARK   16  A    between atoms: _42  and  _44
REMARK   17  A    between atoms: _44  and  _45
REMARK   18  A    between atoms: _44  and  _47
REMARK   19  A    between atoms: _47  and  _48
REMARK   20  A    between atoms: _52  and  _53
REMARK   21  A    between atoms: _58  and  _60
REMARK   22  A    between atoms: _60  and  _61
REMARK   23  A    between atoms: _60  and  _63
REMARK   24  A    between atoms: _63  and  _64
REMARK   25  A    between atoms: _67  and  _69
REMARK   26  A    between atoms: _69  and  _70
REMARK   27  A    between atoms: _69  and  _72
REMARK   28  A    between atoms: _72  and  _73
REMARK   29  A    between atoms: _73  and  _74
REMARK   30  A    between atoms: _74  and  _75
REMARK   31  A    between atoms: _75  and  _76
REMARK   32  A    between atoms: _80  and  _82
REMARK   33  A    between atoms: _82  and  _83
REMARK   34  A    between atoms: _86  and  _88
REMARK   35  A    between atoms: _88  and  _89
REMARK   36  A    between atoms: _88  and  _91
REMARK   37  A    between atoms: _91  and  _92
REMARK   38  A    between atoms: _95  and  _97
REMARK   39  A    between atoms: _97  and  _98
REMARK   40  A    between atoms: _97  and  _100
REMARK   41  A    between atoms: _100  and  _101
REMARK   42  A    between atoms: _104  and  _106
REMARK   43  A    between atoms: _106  and  _107
REMARK   44  A    between atoms: _109  and  _111
REMARK   45  A    between atoms: _111  and  _112
REMARK   46  A    between atoms: _111  and  _114
REMARK   47  A    between atoms: _114  and  _115
REMARK   48  A    between atoms: _120  and  _122
REMARK   49  A    between atoms: _122  and  _123
REMARK   50  A    between atoms: _122  and  _125
REMARK   51  A    between atoms: _125  and  _126
REMARK   52  A    between atoms: _129  and  _131
REMARK   53  A    between atoms: _131  and  _132
REMARK   54  A    between atoms: _131  and  _134
REMARK   55  A    between atoms: _134  and  _135
REMARK   56  A    between atoms: _135  and  _136
REMARK   57  A    between atoms: _136  and  _137
REMARK   58  A    between atoms: _137  and  _138
REMARK   59  A    between atoms: _142  and  _144
REMARK   60  A    between atoms: _144  and  _145
REMARK   61  A    between atoms: _144  and  _147
REMARK   62  A    between atoms: _147  and  _148
REMARK   63  A    between atoms: _151  and  _153
REMARK   64  A    between atoms: _153  and  _154
REMARK   65  A    between atoms: _153  and  _156
REMARK   66  A    between atoms: _156  and  _157
REMARK   67  A    between atoms: _157  and  _158
REMARK   68  A    between atoms: _158  and  _159
REMARK   69  A    between atoms: _159  and  _160
REMARK   70  A    between atoms: _164  and  _166
REMARK   71  A    between atoms: _166  and  _167
REMARK   72  A    between atoms: _169  and  _171
REMARK   73  A    between atoms: _171  and  _172
REMARK   74  A    between atoms: _171  and  _174
REMARK   75  A    between atoms: _174  and  _175
REMARK   76  A    between atoms: _178  and  _180
REMARK   77  A    between atoms: _180  and  _181
REMARK   78  A    between atoms: _184  and  _186
REMARK   79  A    between atoms: _186  and  _187
REMARK   80  A    between atoms: _186  and  _189
REMARK   81  A    between atoms: _189  and  _190
REMARK   82  A    between atoms: _193  and  _195
REMARK   83  A    between atoms: _195  and  _196
REMARK   84  A    between atoms: _195  and  _198
REMARK   85  A    between atoms: _198  and  _199
REMARK   86  A    between atoms: _199  and  _200
REMARK   87  A    between atoms: _202  and  _204
REMARK   88  A    between atoms: _204  and  _205
REMARK   89  A    between atoms: _204  and  _207
REMARK   90  A    between atoms: _207  and  _208
REMARK   91  A    between atoms: _218  and  _220
REMARK   92  A    between atoms: _220  and  _221
REMARK   93  A    between atoms: _220  and  _223
REMARK   94  A    between atoms: _223  and  _224
REMARK   95  A    between atoms: _227  and  _229
REMARK   96  A    between atoms: _229  and  _230
REMARK   97  A    between atoms: _229  and  _232
REMARK   98  A    between atoms: _232  and  _233
REMARK   99  A    between atoms: _233  and  _234
REMARK  100  A    between atoms: _234  and  _235
REMARK  101  A    between atoms: _235  and  _236
REMARK  102  A    between atoms: _240  and  _242
REMARK  103  A    between atoms: _242  and  _243
REMARK  104  A    between atoms: _242  and  _245
REMARK  105  A    between atoms: _245  and  _246
REMARK  106  A    between atoms: _246  and  _247
REMARK  107  A    between atoms: _247  and  _248
REMARK  108  A    between atoms: _257  and  _259
REMARK  109  A    between atoms: _259  and  _260
REMARK  110  A    between atoms: _262  and  _264
REMARK  111  A    between atoms: _264  and  _265
REMARK  112  A    between atoms: _264  and  _267
REMARK  113  A    between atoms: _267  and  _268
REMARK  114  A    between atoms: _271  and  _273
REMARK  115  A    between atoms: _273  and  _274
REMARK  116  A    between atoms: _273  and  _276
REMARK  117  A    between atoms: _276  and  _277
REMARK  118  A    between atoms: _277  and  _278
REMARK  119  A    between atoms: _278  and  _279
REMARK  120  A    between atoms: _288  and  _290
REMARK  121  A    between atoms: _290  and  _291
REMARK  122  A    between atoms: _290  and  _293
REMARK  123  A    between atoms: _293  and  _294
REMARK  124  A    between atoms: _300  and  _302
REMARK  125  A    between atoms: _302  and  _303
REMARK  126  A    between atoms: _302  and  _305
REMARK  127  A    between atoms: _305  and  _306
REMARK  128  A    between atoms: _309  and  _311
REMARK  129  A    between atoms: _311  and  _312
REMARK  130  A    between atoms: _311  and  _314
REMARK  131  A    between atoms: _314  and  _315
REMARK  132  A    between atoms: _321  and  _323
REMARK  133  A    between atoms: _323  and  _324
REMARK  134  A    between atoms: _323  and  _326
REMARK  135  A    between atoms: _326  and  _327
REMARK  136  A    between atoms: _330  and  _332
REMARK  137  A    between atoms: _332  and  _333
REMARK  138  A    between atoms: _332  and  _335
REMARK  139  A    between atoms: _335  and  _336
REMARK  140  A    between atoms: _339  and  _341
REMARK  141  A    between atoms: _341  and  _342
REMARK  142  A    between atoms: _341  and  _344
REMARK  143  A    between atoms: _344  and  _345
REMARK  144  A    between atoms: _348  and  _350
REMARK  145  A    between atoms: _350  and  _351
REMARK  146  A    between atoms: _350  and  _353
REMARK  147  A    between atoms: _353  and  _354
REMARK  148  A    between atoms: _354  and  _355
REMARK  149  A    between atoms: _355  and  _356
REMARK  150  A    between atoms: _365  and  _367
REMARK  151  A    between atoms: _367  and  _368
REMARK  152  A    between atoms: _367  and  _370
REMARK  153  A    between atoms: _370  and  _371
REMARK  154  A    between atoms: _376  and  _378
REMARK  155  A    between atoms: _378  and  _379
REMARK  156  A    between atoms: _382  and  _384
REMARK  157  A    between atoms: _384  and  _385
REMARK  158  A    between atoms: _384  and  _387
REMARK  159  A    between atoms: _387  and  _388
REMARK  160  A    between atoms: _391  and  _393
REMARK  161  A    between atoms: _393  and  _394
REMARK  162  A    between atoms: _397  and  _399
REMARK  163  A    between atoms: _399  and  _400
REMARK  164  A    between atoms: _399  and  _402
REMARK  165  A    between atoms: _402  and  _403
REMARK  166  A    between atoms: _408  and  _409
REMARK  167  A    between atoms: _411  and  _413
REMARK  168  A    between atoms: _413  and  _414
REMARK  169  A    between atoms: _417  and  _419
REMARK  170  A    between atoms: _419  and  _420
REMARK  171  A    between atoms: _419  and  _422
REMARK  172  A    between atoms: _422  and  _423
REMARK  173  A    between atoms: _426  and  _428
REMARK  174  A    between atoms: _428  and  _429
REMARK  175  A    between atoms: _428  and  _431
REMARK  176  A    between atoms: _431  and  _432
REMARK  177  A    between atoms: _432  and  _433
REMARK  178  A    between atoms: _433  and  _434
REMARK  179  A    between atoms: _434  and  _435
REMARK  180  A    between atoms: _439  and  _441
REMARK  181  A    between atoms: _441  and  _442
REMARK  182  A    between atoms: _441  and  _444
REMARK  183  A    between atoms: _444  and  _445
REMARK  184  A    between atoms: _450  and  _451
REMARK  185  A    between atoms: _453  and  _455
REMARK  186  A    between atoms: _455  and  _456
REMARK  187  A    between atoms: _455  and  _458
REMARK  188  A    between atoms: _458  and  _459
REMARK  189  A    between atoms: _464  and  _466
REMARK  190  A    between atoms: _466  and  _467
REMARK  191  A    between atoms: _469  and  _471
REMARK  192  A    between atoms: _471  and  _472
REMARK  193  A    between atoms: _471  and  _474
REMARK  194  A    between atoms: _474  and  _475
REMARK  195  A    between atoms: _478  and  _480
REMARK  196  A    between atoms: _480  and  _481
REMARK  197  A    between atoms: _480  and  _483
REMARK  198  A    between atoms: _486  and  _488
REMARK  199  A    between atoms: _488  and  _489
REMARK  200  A    between atoms: _488  and  _491
REMARK  201  A    between atoms: _491  and  _492
REMARK  202  A    between atoms: _495  and  _497
REMARK  203  A    between atoms: _497  and  _498
REMARK  204  A    between atoms: _497  and  _500
REMARK  205  A    between atoms: _500  and  _501
REMARK  206  A    between atoms: _507  and  _509
REMARK  207  A    between atoms: _509  and  _510
REMARK  208  A    between atoms: _509  and  _512
REMARK  209  A    between atoms: _512  and  _513
REMARK  210  A    between atoms: _513  and  _514
REMARK  211  A    between atoms: _519  and  _521
REMARK  212  A    between atoms: _521  and  _522
REMARK  213  A    between atoms: _525  and  _527
REMARK  214  A    between atoms: _527  and  _528
REMARK  215  A    between atoms: _531  and  _533
REMARK  216  A    between atoms: _533  and  _534
REMARK  217  A    between atoms: _533  and  _536
REMARK  218  A    between atoms: _536  and  _537
REMARK  219  A    between atoms: _540  and  _542
REMARK  220  A    between atoms: _542  and  _543
REMARK  221  A    between atoms: _542  and  _545
REMARK  222  A    between atoms: _545  and  _546
REMARK  223  A    between atoms: _551  and  _552
REMARK  224  A    between atoms: _554  and  _556
REMARK  225  A    between atoms: _556  and  _557
REMARK  226  A    between atoms: _560  and  _562
REMARK  227  A    between atoms: _562  and  _563
REMARK  228  A    between atoms: _567  and  _568
REMARK  229  A    between atoms: _573  and  _575
REMARK  230  A    between atoms: _575  and  _576
REMARK  231  A    between atoms: _575  and  _578
REMARK  232  A    between atoms: _578  and  _579
REMARK  233  A    between atoms: _585  and  _587
REMARK  234  A    between atoms: _587  and  _588
REMARK  235  A    between atoms: _587  and  _590
REMARK  236  A    between atoms: _590  and  _591
REMARK  237  A    between atoms: _596  and  _597
REMARK  238  A    between atoms: _599  and  _601
REMARK  239  A    between atoms: _601  and  _602
REMARK  240  A    between atoms: _601  and  _604
REMARK  241  A    between atoms: _604  and  _605
REMARK  242  A    between atoms: _605  and  _606
REMARK  243  A    between atoms: _606  and  _607
REMARK  244  A    between atoms: _607  and  _608
REMARK  245  A    between atoms: _612  and  _614
REMARK  246  A    between atoms: _614  and  _615
REMARK  247  A    between atoms: _614  and  _617
REMARK                            x       y       z     vdW  Elec       q    Type
REMARK                         _______ _______ _______ _____ _____    ______ ____
ROOT
ATOM      1  O   HOH     1      20.568   9.382  21.984  0.00  0.00    +0.000 OA
ENDROOT
TORSDOF 0
REMARK  Name = ../refined-set-2016/2evl/2evl_pocket.pdb
REMARK  247 active torsions:
REMARK  status: ('A' for Active; 'I' for Inactive)
REMARK    1  A    between atoms: _1  and  _3
REMARK    2  A    between atoms: _3  and  _4
REMARK    3  A    between atoms: _3  and  _6
REMARK    4  A    between atoms: _6  and  _7
REMARK    5  A    between atoms: _13  and  _15
REMARK    6  A    between atoms: _15  and  _16
REMARK    7  A    between atoms: _15  and  _18
REMARK    8  A    between atoms: _18  and  _19
REMARK    9  A    between atoms: _22  and  _24
REMARK   10  A    between atoms: _24  and  _25
REMARK   11  A    between atoms: _24  and  _27
REMARK   12  A    between atoms: _30  and  _32
REMARK   13  A    between atoms: _32  and  _33
REMARK   14  A    between atoms: _32  and  _35
REMARK   15  A    between atoms: _35  and  _36
REMARK   16  A    between atoms: _42  and  _44
REMARK   17  A    between atoms: _44  and  _45
REMARK   18  A    between atoms: _44  and  _47
REMARK   19  A    between atoms: _47  and  _48
REMARK   20  A    between atoms: _52  and  _53
REMARK   21  A    between atoms: _58  and  _60
REMARK   22  A    between atoms: _60  and  _61
REMARK   23  A    between atoms: _60  and  _63
REMARK   24  A    between atoms: _63  and  _64
REMARK   25  A    between atoms: _67  and  _69
REMARK   26  A    between atoms: _69  and  _70
REMARK   27  A    between atoms: _69  and  _72
REMARK   28  A    between atoms: _72  and  _73
REMARK   29  A    between atoms: _73  and  _74
REMARK   30  A    between atoms: _74  and  _75
REMARK   31  A    between atoms: _75  and  _76
REMARK   32  A    between atoms: _80  and  _82
REMARK   33  A    between atoms: _82  and  _83
REMARK   34  A    between atoms: _86  and  _88
REMARK   35  A    between atoms: _88  and  _89
REMARK   36  A    between atoms: _88  and  _91
REMARK   37  A    between atoms: _91  and  _92
REMARK   38  A    between atoms: _95  and  _97
REMARK   39  A    between atoms: _97  and  _98
REMARK   40  A    between atoms: _97  and  _100
REMARK   41  A    between atoms: _100  and  _101
REMARK   42  A    between atoms: _104  and  _106
REMARK   43  A    between atoms: _106  and  _107
REMARK   44  A    between atoms: _109  and  _111
REMARK   45  A    between atoms: _111  and  _112
REMARK   46  A    between atoms: _111  and  _114
REMARK   47  A    between atoms: _114  and  _115
REMARK   48  A    between atoms: _120  and  _122
REMARK   49  A    between atoms: _122  and  _123
REMARK   50  A    between atoms: _122  and  _125
REMARK   51  A    between atoms: _125  and  _126
REMARK   52  A    between atoms: _129  and  _131
REMARK   53  A    between atoms: _131  and  _132
REMARK   54  A    between atoms: _131  and  _134
REMARK   55  A    between atoms: _134  and  _135
REMARK   56  A    between atoms: _135  and  _136
REMARK   57  A    between atoms: _136  and  _137
REMARK   58  A    between atoms: _137  and  _138
REMARK   59  A    between atoms: _142  and  _144
REMARK   60  A    between atoms: _144  and  _145
REMARK   61  A    between atoms: _144  and  _147
REMARK   62  A    between atoms: _147  and  _148
REMARK   63  A    between atoms: _151  and  _153
REMARK   64  A    between atoms: _153  and  _154
REMARK   65  A    between atoms: _153  and  _156
REMARK   66  A    between atoms: _156  and  _157
REMARK   67  A    between atoms: _157  and  _158
REMARK   68  A    between atoms: _158  and  _159
REMARK   69  A    between atoms: _159  and  _160
REMARK   70  A    between atoms: _164  and  _166
REMARK   71  A    between atoms: _166  and  _167
REMARK   72  A    between atoms: _169  and  _171
REMARK   73  A    between atoms: _171  and  _172
REMARK   74  A    between atoms: _171  and  _174
REMARK   75  A    between atoms: _174  and  _175
REMARK   76  A    between atoms: _178  and  _180
REMARK   77  A    between atoms: _180  and  _181
REMARK   78  A    between atoms: _184  and  _186
REMARK   79  A    between atoms: _186  and  _187
REMARK   80  A    between atoms: _186  and  _189
REMARK   81  A    between atoms: _189  and  _190
REMARK   82  A    between atoms: _193  and  _195
REMARK   83  A    between atoms: _195  and  _196
REMARK   84  A    between atoms: _195  and  _198
REMARK   85  A    between atoms: _198  and  _199
REMARK   86  A    between atoms: _199  and  _200
REMARK   87  A    between atoms: _202  and  _204
REMARK   88  A    between atoms: _204  and  _205
REMARK   89  A    between atoms: _204  and  _207
REMARK   90  A    between atoms: _207  and  _208
REMARK   91  A    between atoms: _218  and  _220
REMARK   92  A    between atoms: _220  and  _221
REMARK   93  A    between atoms: _220  and  _223
REMARK   94  A    between atoms: _223  and  _224
REMARK   95  A    between atoms: _227  and  _229
REMARK   96  A    between atoms: _229  and  _230
REMARK   97  A    between atoms: _229  and  _232
REMARK   98  A    between atoms: _232  and  _233
REMARK   99  A    between atoms: _233  and  _234
REMARK  100  A    between atoms: _234  and  _235
REMARK  101  A    between atoms: _235  and  _236
REMARK  102  A    between atoms: _240  and  _242
REMARK  103  A    between atoms: _242  and  _243
REMARK  104  A    between atoms: _242  and  _245
REMARK  105  A    between atoms: _245  and  _246
REMARK  106  A    between atoms: _246  and  _247
REMARK  107  A    between atoms: _247  and  _248
REMARK  108  A    between atoms: _257  and  _259
REMARK  109  A    between atoms: _259  and  _260
REMARK  110  A    between atoms: _262  and  _264
REMARK  111  A    between atoms: _264  and  _265
REMARK  112  A    between atoms: _264  and  _267
REMARK  113  A    between atoms: _267  and  _268
REMARK  114  A    between atoms: _271  and  _273
REMARK  115  A    between atoms: _273  and  _274
REMARK  116  A    between atoms: _273  and  _276
REMARK  117  A    between atoms: _276  and  _277
REMARK  118  A    between atoms: _277  and  _278
REMARK  119  A    between atoms: _278  and  _279
REMARK  120  A    between atoms: _288  and  _290
REMARK  121  A    between atoms: _290  and  _291
REMARK  122  A    between atoms: _290  and  _293
REMARK  123  A    between atoms: _293  and  _294
REMARK  124  A    between atoms: _300  and  _302
REMARK  125  A    between atoms: _302  and  _303
REMARK  126  A    between atoms: _302  and  _305
REMARK  127  A    between atoms: _305  and  _306
REMARK  128  A    between atoms: _309  and  _311
REMARK  129  A    between atoms: _311  and  _312
REMARK  130  A    between atoms: _311  and  _314
REMARK  131  A    between atoms: _314  and  _315
REMARK  132  A    between atoms: _321  and  _323
REMARK  133  A    between atoms: _323  and  _324
REMARK  134  A    between atoms: _323  and  _326
REMARK  135  A    between atoms: _326  and  _327
REMARK  136  A    between atoms: _330  and  _332
REMARK  137  A    between atoms: _332  and  _333
REMARK  138  A    between atoms: _332  and  _335
REMARK  139  A    between atoms: _335  and  _336
REMARK  140  A    between atoms: _339  and  _341
REMARK  141  A    between atoms: _341  and  _342
REMARK  142  A    between atoms: _341  and  _344
REMARK  143  A    between atoms: _344  and  _345
REMARK  144  A    between atoms: _348  and  _350
REMARK  145  A    between atoms: _350  and  _351
REMARK  146  A    between atoms: _350  and  _353
REMARK  147  A    between atoms: _353  and  _354
REMARK  148  A    between atoms: _354  and  _355
REMARK  149  A    between atoms: _355  and  _356
REMARK  150  A    between atoms: _365  and  _367
REMARK  151  A    between atoms: _367  and  _368
REMARK  152  A    between atoms: _367  and  _370
REMARK  153  A    between atoms: _370  and  _371
REMARK  154  A    between atoms: _376  and  _378
REMARK  155  A    between atoms: _378  and  _379
REMARK  156  A    between atoms: _382  and  _384
REMARK  157  A    between atoms: _384  and  _385
REMARK  158  A    between atoms: _384  and  _387
REMARK  159  A    between atoms: _387  and  _388
REMARK  160  A    between atoms: _391  and  _393
REMARK  161  A    between atoms: _393  and  _394
REMARK  162  A    between atoms: _397  and  _399
REMARK  163  A    between atoms: _399  and  _400
REMARK  164  A    between atoms: _399  and  _402
REMARK  165  A    between atoms: _402  and  _403
REMARK  166  A    between atoms: _408  and  _409
REMARK  167  A    between atoms: _411  and  _413
REMARK  168  A    between atoms: _413  and  _414
REMARK  169  A    between atoms: _417  and  _419
REMARK  170  A    between atoms: _419  and  _420
REMARK  171  A    between atoms: _419  and  _422
REMARK  172  A    between atoms: _422  and  _423
REMARK  173  A    between atoms: _426  and  _428
REMARK  174  A    between atoms: _428  and  _429
REMARK  175  A    between atoms: _428  and  _431
REMARK  176  A    between atoms: _431  and  _432
REMARK  177  A    between atoms: _432  and  _433
REMARK  178  A    between atoms: _433  and  _434
REMARK  179  A    between atoms: _434  and  _435
REMARK  180  A    between atoms: _439  and  _441
REMARK  181  A    between atoms: _441  and  _442
REMARK  182  A    between atoms: _441  and  _444
REMARK  183  A    between atoms: _444  and  _445
REMARK  184  A    between atoms: _450  and  _451
REMARK  185  A    between atoms: _453  and  _455
REMARK  186  A    between atoms: _455  and  _456
REMARK  187  A    between atoms: _455  and  _458
REMARK  188  A    between atoms: _458  and  _459
REMARK  189  A    between atoms: _464  and  _466
REMARK  190  A    between atoms: _466  and  _467
REMARK  191  A    between atoms: _469  and  _471
REMARK  192  A    between atoms: _471  and  _472
REMARK  193  A    between atoms: _471  and  _474
REMARK  194  A    between atoms: _474  and  _475
REMARK  195  A    between atoms: _478  and  _480
REMARK  196  A    between atoms: _480  and  _481
REMARK  197  A    between atoms: _480  and  _483
REMARK  198  A    between atoms: _486  and  _488
REMARK  199  A    between atoms: _488  and  _489
REMARK  200  A    between atoms: _488  and  _491
REMARK  201  A    between atoms: _491  and  _492
REMARK  202  A    between atoms: _495  and  _497
REMARK  203  A    between atoms: _497  and  _498
REMARK  204  A    between atoms: _497  and  _500
REMARK  205  A    between atoms: _500  and  _501
REMARK  206  A    between atoms: _507  and  _509
REMARK  207  A    between atoms: _509  and  _510
REMARK  208  A    between atoms: _509  and  _512
REMARK  209  A    between atoms: _512  and  _513
REMARK  210  A    between atoms: _513  and  _514
REMARK  211  A    between atoms: _519  and  _521
REMARK  212  A    between atoms: _521  and  _522
REMARK  213  A    between atoms: _525  and  _527
REMARK  214  A    between atoms: _527  and  _528
REMARK  215  A    between atoms: _531  and  _533
REMARK  216  A    between atoms: _533  and  _534
REMARK  217  A    between atoms: _533  and  _536
REMARK  218  A    between atoms: _536  and  _537
REMARK  219  A    between atoms: _540  and  _542
REMARK  220  A    between atoms: _542  and  _543
REMARK  221  A    between atoms: _542  and  _545
REMARK  222  A    between atoms: _545  and  _546
REMARK  223  A    between atoms: _551  and  _552
REMARK  224  A    between atoms: _554  and  _556
REMARK  225  A    between atoms: _556  and  _557
REMARK  226  A    between atoms: _560  and  _562
REMARK  227  A    between atoms: _562  and  _563
REMARK  228  A    between atoms: _567  and  _568
REMARK  229  A    between atoms: _573  and  _575
REMARK  230  A    between atoms: _575  and  _576
REMARK  231  A    between atoms: _575  and  _578
REMARK  232  A    between atoms: _578  and  _579
REMARK  233  A    between atoms: _585  and  _587
REMARK  234  A    between atoms: _587  and  _588
REMARK  235  A    between atoms: _587  and  _590
REMARK  236  A    between atoms: _590  and  _591
REMARK  237  A    between atoms: _596  and  _597
REMARK  238  A    between atoms: _599  and  _601
REMARK  239  A    between atoms: _601  and  _602
REMARK  240  A    between atoms: _601  and  _604
REMARK  241  A    between atoms: _604  and  _605
REMARK  242  A    between atoms: _605  and  _606
REMARK  243  A    between atoms: _606  and  _607
REMARK  244  A    between atoms: _607  and  _608
REMARK  245  A    between atoms: _612  and  _614
REMARK  246  A    between atoms: _614  and  _615
REMARK  247  A    between atoms: _614  and  _617
REMARK                            x       y       z     vdW  Elec       q    Type
REMARK                         _______ _______ _______ _____ _____    ______ ____
ROOT
ATOM      1  O   HOH     1      25.249   7.679  15.504  0.00  0.00    +0.000 OA
ENDROOT
TORSDOF 0
REMARK  Name = ../refined-set-2016/2evl/2evl_pocket.pdb
REMARK  247 active torsions:
REMARK  status: ('A' for Active; 'I' for Inactive)
REMARK    1  A    between atoms: _1  and  _3
REMARK    2  A    between atoms: _3  and  _4
REMARK    3  A    between atoms: _3  and  _6
REMARK    4  A    between atoms: _6  and  _7
REMARK    5  A    between atoms: _13  and  _15
REMARK    6  A    between atoms: _15  and  _16
REMARK    7  A    between atoms: _15  and  _18
REMARK    8  A    between atoms: _18  and  _19
REMARK    9  A    between atoms: _22  and  _24
REMARK   10  A    between atoms: _24  and  _25
REMARK   11  A    between atoms: _24  and  _27
REMARK   12  A    between atoms: _30  and  _32
REMARK   13  A    between atoms: _32  and  _33
REMARK   14  A    between atoms: _32  and  _35
REMARK   15  A    between atoms: _35  and  _36
REMARK   16  A    between atoms: _42  and  _44
REMARK   17  A    between atoms: _44  and  _45
REMARK   18  A    between atoms: _44  and  _47
REMARK   19  A    between atoms: _47  and  _48
REMARK   20  A    between atoms: _52  and  _53
REMARK   21  A    between atoms: _58  and  _60
REMARK   22  A    between atoms: _60  and  _61
REMARK   23  A    between atoms: _60  and  _63
REMARK   24  A    between atoms: _63  and  _64
REMARK   25  A    between atoms: _67  and  _69
REMARK   26  A    between atoms: _69  and  _70
REMARK   27  A    between atoms: _69  and  _72
REMARK   28  A    between atoms: _72  and  _73
REMARK   29  A    between atoms: _73  and  _74
REMARK   30  A    between atoms: _74  and  _75
REMARK   31  A    between atoms: _75  and  _76
REMARK   32  A    between atoms: _80  and  _82
REMARK   33  A    between atoms: _82  and  _83
REMARK   34  A    between atoms: _86  and  _88
REMARK   35  A    between atoms: _88  and  _89
REMARK   36  A    between atoms: _88  and  _91
REMARK   37  A    between atoms: _91  and  _92
REMARK   38  A    between atoms: _95  and  _97
REMARK   39  A    between atoms: _97  and  _98
REMARK   40  A    between atoms: _97  and  _100
REMARK   41  A    between atoms: _100  and  _101
REMARK   42  A    between atoms: _104  and  _106
REMARK   43  A    between atoms: _106  and  _107
REMARK   44  A    between atoms: _109  and  _111
REMARK   45  A    between atoms: _111  and  _112
REMARK   46  A    between atoms: _111  and  _114
REMARK   47  A    between atoms: _114  and  _115
REMARK   48  A    between atoms: _120  and  _122
REMARK   49  A    between atoms: _122  and  _123
REMARK   50  A    between atoms: _122  and  _125
REMARK   51  A    between atoms: _125  and  _126
REMARK   52  A    between atoms: _129  and  _131
REMARK   53  A    between atoms: _131  and  _132
REMARK   54  A    between atoms: _131  and  _134
REMARK   55  A    between atoms: _134  and  _135
REMARK   56  A    between atoms: _135  and  _136
REMARK   57  A    between atoms: _136  and  _137
REMARK   58  A    between atoms: _137  and  _138
REMARK   59  A    between atoms: _142  and  _144
REMARK   60  A    between atoms: _144  and  _145
REMARK   61  A    between atoms: _144  and  _147
REMARK   62  A    between atoms: _147  and  _148
REMARK   63  A    between atoms: _151  and  _153
REMARK   64  A    between atoms: _153  and  _154
REMARK   65  A    between atoms: _153  and  _156
REMARK   66  A    between atoms: _156  and  _157
REMARK   67  A    between atoms: _157  and  _158
REMARK   68  A    between atoms: _158  and  _159
REMARK   69  A    between atoms: _159  and  _160
REMARK   70  A    between atoms: _164  and  _166
REMARK   71  A    between atoms: _166  and  _167
REMARK   72  A    between atoms: _169  and  _171
REMARK   73  A    between atoms: _171  and  _172
REMARK   74  A    between atoms: _171  and  _174
REMARK   75  A    between atoms: _174  and  _175
REMARK   76  A    between atoms: _178  and  _180
REMARK   77  A    between atoms: _180  and  _181
REMARK   78  A    between atoms: _184  and  _186
REMARK   79  A    between atoms: _186  and  _187
REMARK   80  A    between atoms: _186  and  _189
REMARK   81  A    between atoms: _189  and  _190
REMARK   82  A    between atoms: _193  and  _195
REMARK   83  A    between atoms: _195  and  _196
REMARK   84  A    between atoms: _195  and  _198
REMARK   85  A    between atoms: _198  and  _199
REMARK   86  A    between atoms: _199  and  _200
REMARK   87  A    between atoms: _202  and  _204
REMARK   88  A    between atoms: _204  and  _205
REMARK   89  A    between atoms: _204  and  _207
REMARK   90  A    between atoms: _207  and  _208
REMARK   91  A    between atoms: _218  and  _220
REMARK   92  A    between atoms: _220  and  _221
REMARK   93  A    between atoms: _220  and  _223
REMARK   94  A    between atoms: _223  and  _224
REMARK   95  A    between atoms: _227  and  _229
REMARK   96  A    between atoms: _229  and  _230
REMARK   97  A    between atoms: _229  and  _232
REMARK   98  A    between atoms: _232  and  _233
REMARK   99  A    between atoms: _233  and  _234
REMARK  100  A    between atoms: _234  and  _235
REMARK  101  A    between atoms: _235  and  _236
REMARK  102  A    between atoms: _240  and  _242
REMARK  103  A    between atoms: _242  and  _243
REMARK  104  A    between atoms: _242  and  _245
REMARK  105  A    between atoms: _245  and  _246
REMARK  106  A    between atoms: _246  and  _247
REMARK  107  A    between atoms: _247  and  _248
REMARK  108  A    between atoms: _257  and  _259
REMARK  109  A    between atoms: _259  and  _260
REMARK  110  A    between atoms: _262  and  _264
REMARK  111  A    between atoms: _264  and  _265
REMARK  112  A    between atoms: _264  and  _267
REMARK  113  A    between atoms: _267  and  _268
REMARK  114  A    between atoms: _271  and  _273
REMARK  115  A    between atoms: _273  and  _274
REMARK  116  A    between atoms: _273  and  _276
REMARK  117  A    between atoms: _276  and  _277
REMARK  118  A    between atoms: _277  and  _278
REMARK  119  A    between atoms: _278  and  _279
REMARK  120  A    between atoms: _288  and  _290
REMARK  121  A    between atoms: _290  and  _291
REMARK  122  A    between atoms: _290  and  _293
REMARK  123  A    between atoms: _293  and  _294
REMARK  124  A    between atoms: _300  and  _302
REMARK  125  A    between atoms: _302  and  _303
REMARK  126  A    between atoms: _302  and  _305
REMARK  127  A    between atoms: _305  and  _306
REMARK  128  A    between atoms: _309  and  _311
REMARK  129  A    between atoms: _311  and  _312
REMARK  130  A    between atoms: _311  and  _314
REMARK  131  A    between atoms: _314  and  _315
REMARK  132  A    between atoms: _321  and  _323
REMARK  133  A    between atoms: _323  and  _324
REMARK  134  A    between atoms: _323  and  _326
REMARK  135  A    between atoms: _326  and  _327
REMARK  136  A    between atoms: _330  and  _332
REMARK  137  A    between atoms: _332  and  _333
REMARK  138  A    between atoms: _332  and  _335
REMARK  139  A    between atoms: _335  and  _336
REMARK  140  A    between atoms: _339  and  _341
REMARK  141  A    between atoms: _341  and  _342
REMARK  142  A    between atoms: _341  and  _344
REMARK  143  A    between atoms: _344  and  _345
REMARK  144  A    between atoms: _348  and  _350
REMARK  145  A    between atoms: _350  and  _351
REMARK  146  A    between atoms: _350  and  _353
REMARK  147  A    between atoms: _353  and  _354
REMARK  148  A    between atoms: _354  and  _355
REMARK  149  A    between atoms: _355  and  _356
REMARK  150  A    between atoms: _365  and  _367
REMARK  151  A    between atoms: _367  and  _368
REMARK  152  A    between atoms: _367  and  _370
REMARK  153  A    between atoms: _370  and  _371
REMARK  154  A    between atoms: _376  and  _378
REMARK  155  A    between atoms: _378  and  _379
REMARK  156  A    between atoms: _382  and  _384
REMARK  157  A    between atoms: _384  and  _385
REMARK  158  A    between atoms: _384  and  _387
REMARK  159  A    between atoms: _387  and  _388
REMARK  160  A    between atoms: _391  and  _393
REMARK  161  A    between atoms: _393  and  _394
REMARK  162  A    between atoms: _397  and  _399
REMARK  163  A    between atoms: _399  and  _400
REMARK  164  A    between atoms: _399  and  _402
REMARK  165  A    between atoms: _402  and  _403
REMARK  166  A    between atoms: _408  and  _409
REMARK  167  A    between atoms: _411  and  _413
REMARK  168  A    between atoms: _413  and  _414
REMARK  169  A    between atoms: _417  and  _419
REMARK  170  A    between atoms: _419  and  _420
REMARK  171  A    between atoms: _419  and  _422
REMARK  172  A    between atoms: _422  and  _423
REMARK  173  A    between atoms: _426  and  _428
REMARK  174  A    between atoms: _428  and  _429
REMARK  175  A    between atoms: _428  and  _431
REMARK  176  A    between atoms: _431  and  _432
REMARK  177  A    between atoms: _432  and  _433
REMARK  178  A    between atoms: _433  and  _434
REMARK  179  A    between atoms: _434  and  _435
REMARK  180  A    between atoms: _439  and  _441
REMARK  181  A    between atoms: _441  and  _442
REMARK  182  A    between atoms: _441  and  _444
REMARK  183  A    between atoms: _444  and  _445
REMARK  184  A    between atoms: _450  and  _451
REMARK  185  A    between atoms: _453  and  _455
REMARK  186  A    between atoms: _455  and  _456
REMARK  187  A    between atoms: _455  and  _458
REMARK  188  A    between atoms: _458  and  _459
REMARK  189  A    between atoms: _464  and  _466
REMARK  190  A    between atoms: _466  and  _467
REMARK  191  A    between atoms: _469  and  _471
REMARK  192  A    between atoms: _471  and  _472
REMARK  193  A    between atoms: _471  and  _474
REMARK  194  A    between atoms: _474  and  _475
REMARK  195  A    between atoms: _478  and  _480
REMARK  196  A    between atoms: _480  and  _481
REMARK  197  A    between atoms: _480  and  _483
REMARK  198  A    between atoms: _486  and  _488
REMARK  199  A    between atoms: _488  and  _489
REMARK  200  A    between atoms: _488  and  _491
REMARK  201  A    between atoms: _491  and  _492
REMARK  202  A    between atoms: _495  and  _497
REMARK  203  A    between atoms: _497  and  _498
REMARK  204  A    between atoms: _497  and  _500
REMARK  205  A    between atoms: _500  and  _501
REMARK  206  A    between atoms: _507  and  _509
REMARK  207  A    between atoms: _509  and  _510
REMARK  208  A    between atoms: _509  and  _512
REMARK  209  A    between atoms: _512  and  _513
REMARK  210  A    between atoms: _513  and  _514
REMARK  211  A    between atoms: _519  and  _521
REMARK  212  A    between atoms: _521  and  _522
REMARK  213  A    between atoms: _525  and  _527
REMARK  214  A    between atoms: _527  and  _528
REMARK  215  A    between atoms: _531  and  _533
REMARK  216  A    between atoms: _533  and  _534
REMARK  217  A    between atoms: _533  and  _536
REMARK  218  A    between atoms: _536  and  _537
REMARK  219  A    between atoms: _540  and  _542
REMARK  220  A    between atoms: _542  and  _543
REMARK  221  A    between atoms: _542  and  _545
REMARK  222  A    between atoms: _545  and  _546
REMARK  223  A    between atoms: _551  and  _552
REMARK  224  A    between atoms: _554  and  _556
REMARK  225  A    between atoms: _556  and  _557
REMARK  226  A    between atoms: _560  and  _562
REMARK  227  A    between atoms: _562  and  _563
REMARK  228  A    between atoms: _567  and  _568
REMARK  229  A    between atoms: _573  and  _575
REMARK  230  A    between atoms: _575  and  _576
REMARK  231  A    between atoms: _575  and  _578
REMARK  232  A    between atoms: _578  and  _579
REMARK  233  A    between atoms: _585  and  _587
REMARK  234  A    between atoms: _587  and  _588
REMARK  235  A    between atoms: _587  and  _590
REMARK  236  A    between atoms: _590  and  _591
REMARK  237  A    between atoms: _596  and  _597
REMARK  238  A    between atoms: _599  and  _601
REMARK  239  A    between atoms: _601  and  _602
REMARK  240  A    between atoms: _601  and  _604
REMARK  241  A    between atoms: _604  and  _605
REMARK  242  A    between atoms: _605  and  _606
REMARK  243  A    between atoms: _606  and  _607
REMARK  244  A    between atoms: _607  and  _608
REMARK  245  A    between atoms: _612  and  _614
REMARK  246  A    between atoms: _614  and  _615
REMARK  247  A    between atoms: _614  and  _617
REMARK                            x       y       z     vdW  Elec       q    Type
REMARK                         _______ _______ _______ _____ _____    ______ ____
ROOT
ATOM      1  O   HOH     1       4.685 -14.679  27.527  0.00  0.00    +0.000 OA
ENDROOT
TORSDOF 0
REMARK  Name = ../refined-set-2016/2evl/2evl_pocket.pdb
REMARK  247 active torsions:
REMARK  status: ('A' for Active; 'I' for Inactive)
REMARK    1  A    between atoms: _1  and  _3
REMARK    2  A    between atoms: _3  and  _4
REMARK    3  A    between atoms: _3  and  _6
REMARK    4  A    between atoms: _6  and  _7
REMARK    5  A    between atoms: _13  and  _15
REMARK    6  A    between atoms: _15  and  _16
REMARK    7  A    between atoms: _15  and  _18
REMARK    8  A    between atoms: _18  and  _19
REMARK    9  A    between atoms: _22  and  _24
REMARK   10  A    between atoms: _24  and  _25
REMARK   11  A    between atoms: _24  and  _27
REMARK   12  A    between atoms: _30  and  _32
REMARK   13  A    between atoms: _32  and  _33
REMARK   14  A    between atoms: _32  and  _35
REMARK   15  A    between atoms: _35  and  _36
REMARK   16  A    between atoms: _42  and  _44
REMARK   17  A    between atoms: _44  and  _45
REMARK   18  A    between atoms: _44  and  _47
REMARK   19  A    between atoms: _47  and  _48
REMARK   20  A    between atoms: _52  and  _53
REMARK   21  A    between atoms: _58  and  _60
REMARK   22  A    between atoms: _60  and  _61
REMARK   23  A    between atoms: _60  and  _63
REMARK   24  A    between atoms: _63  and  _64
REMARK   25  A    between atoms: _67  and  _69
REMARK   26  A    between atoms: _69  and  _70
REMARK   27  A    between atoms: _69  and  _72
REMARK   28  A    between atoms: _72  and  _73
REMARK   29  A    between atoms: _73  and  _74
REMARK   30  A    between atoms: _74  and  _75
REMARK   31  A    between atoms: _75  and  _76
REMARK   32  A    between atoms: _80  and  _82
REMARK   33  A    between atoms: _82  and  _83
REMARK   34  A    between atoms: _86  and  _88
REMARK   35  A    between atoms: _88  and  _89
REMARK   36  A    between atoms: _88  and  _91
REMARK   37  A    between atoms: _91  and  _92
REMARK   38  A    between atoms: _95  and  _97
REMARK   39  A    between atoms: _97  and  _98
REMARK   40  A    between atoms: _97  and  _100
REMARK   41  A    between atoms: _100  and  _101
REMARK   42  A    between atoms: _104  and  _106
REMARK   43  A    between atoms: _106  and  _107
REMARK   44  A    between atoms: _109  and  _111
REMARK   45  A    between atoms: _111  and  _112
REMARK   46  A    between atoms: _111  and  _114
REMARK   47  A    between atoms: _114  and  _115
REMARK   48  A    between atoms: _120  and  _122
REMARK   49  A    between atoms: _122  and  _123
REMARK   50  A    between atoms: _122  and  _125
REMARK   51  A    between atoms: _125  and  _126
REMARK   52  A    between atoms: _129  and  _131
REMARK   53  A    between atoms: _131  and  _132
REMARK   54  A    between atoms: _131  and  _134
REMARK   55  A    between atoms: _134  and  _135
REMARK   56  A    between atoms: _135  and  _136
REMARK   57  A    between atoms: _136  and  _137
REMARK   58  A    between atoms: _137  and  _138
REMARK   59  A    between atoms: _142  and  _144
REMARK   60  A    between atoms: _144  and  _145
REMARK   61  A    between atoms: _144  and  _147
REMARK   62  A    between atoms: _147  and  _148
REMARK   63  A    between atoms: _151  and  _153
REMARK   64  A    between atoms: _153  and  _154
REMARK   65  A    between atoms: _153  and  _156
REMARK   66  A    between atoms: _156  and  _157
REMARK   67  A    between atoms: _157  and  _158
REMARK   68  A    between atoms: _158  and  _159
REMARK   69  A    between atoms: _159  and  _160
REMARK   70  A    between atoms: _164  and  _166
REMARK   71  A    between atoms: _166  and  _167
REMARK   72  A    between atoms: _169  and  _171
REMARK   73  A    between atoms: _171  and  _172
REMARK   74  A    between atoms: _171  and  _174
REMARK   75  A    between atoms: _174  and  _175
REMARK   76  A    between atoms: _178  and  _180
REMARK   77  A    between atoms: _180  and  _181
REMARK   78  A    between atoms: _184  and  _186
REMARK   79  A    between atoms: _186  and  _187
REMARK   80  A    between atoms: _186  and  _189
REMARK   81  A    between atoms: _189  and  _190
REMARK   82  A    between atoms: _193  and  _195
REMARK   83  A    between atoms: _195  and  _196
REMARK   84  A    between atoms: _195  and  _198
REMARK   85  A    between atoms: _198  and  _199
REMARK   86  A    between atoms: _199  and  _200
REMARK   87  A    between atoms: _202  and  _204
REMARK   88  A    between atoms: _204  and  _205
REMARK   89  A    between atoms: _204  and  _207
REMARK   90  A    between atoms: _207  and  _208
REMARK   91  A    between atoms: _218  and  _220
REMARK   92  A    between atoms: _220  and  _221
REMARK   93  A    between atoms: _220  and  _223
REMARK   94  A    between atoms: _223  and  _224
REMARK   95  A    between atoms: _227  and  _229
REMARK   96  A    between atoms: _229  and  _230
REMARK   97  A    between atoms: _229  and  _232
REMARK   98  A    between atoms: _232  and  _233
REMARK   99  A    between atoms: _233  and  _234
REMARK  100  A    between atoms: _234  and  _235
REMARK  101  A    between atoms: _235  and  _236
REMARK  102  A    between atoms: _240  and  _242
REMARK  103  A    between atoms: _242  and  _243
REMARK  104  A    between atoms: _242  and  _245
REMARK  105  A    between atoms: _245  and  _246
REMARK  106  A    between atoms: _246  and  _247
REMARK  107  A    between atoms: _247  and  _248
REMARK  108  A    between atoms: _257  and  _259
REMARK  109  A    between atoms: _259  and  _260
REMARK  110  A    between atoms: _262  and  _264
REMARK  111  A    between atoms: _264  and  _265
REMARK  112  A    between atoms: _264  and  _267
REMARK  113  A    between atoms: _267  and  _268
REMARK  114  A    between atoms: _271  and  _273
REMARK  115  A    between atoms: _273  and  _274
REMARK  116  A    between atoms: _273  and  _276
REMARK  117  A    between atoms: _276  and  _277
REMARK  118  A    between atoms: _277  and  _278
REMARK  119  A    between atoms: _278  and  _279
REMARK  120  A    between atoms: _288  and  _290
REMARK  121  A    between atoms: _290  and  _291
REMARK  122  A    between atoms: _290  and  _293
REMARK  123  A    between atoms: _293  and  _294
REMARK  124  A    between atoms: _300  and  _302
REMARK  125  A    between atoms: _302  and  _303
REMARK  126  A    between atoms: _302  and  _305
REMARK  127  A    between atoms: _305  and  _306
REMARK  128  A    between atoms: _309  and  _311
REMARK  129  A    between atoms: _311  and  _312
REMARK  130  A    between atoms: _311  and  _314
REMARK  131  A    between atoms: _314  and  _315
REMARK  132  A    between atoms: _321  and  _323
REMARK  133  A    between atoms: _323  and  _324
REMARK  134  A    between atoms: _323  and  _326
REMARK  135  A    between atoms: _326  and  _327
REMARK  136  A    between atoms: _330  and  _332
REMARK  137  A    between atoms: _332  and  _333
REMARK  138  A    between atoms: _332  and  _335
REMARK  139  A    between atoms: _335  and  _336
REMARK  140  A    between atoms: _339  and  _341
REMARK  141  A    between atoms: _341  and  _342
REMARK  142  A    between atoms: _341  and  _344
REMARK  143  A    between atoms: _344  and  _345
REMARK  144  A    between atoms: _348  and  _350
REMARK  145  A    between atoms: _350  and  _351
REMARK  146  A    between atoms: _350  and  _353
REMARK  147  A    between atoms: _353  and  _354
REMARK  148  A    between atoms: _354  and  _355
REMARK  149  A    between atoms: _355  and  _356
REMARK  150  A    between atoms: _365  and  _367
REMARK  151  A    between atoms: _367  and  _368
REMARK  152  A    between atoms: _367  and  _370
REMARK  153  A    between atoms: _370  and  _371
REMARK  154  A    between atoms: _376  and  _378
REMARK  155  A    between atoms: _378  and  _379
REMARK  156  A    between atoms: _382  and  _384
REMARK  157  A    between atoms: _384  and  _385
REMARK  158  A    between atoms: _384  and  _387
REMARK  159  A    between atoms: _387  and  _388
REMARK  160  A    between atoms: _391  and  _393
REMARK  161  A    between atoms: _393  and  _394
REMARK  162  A    between atoms: _397  and  _399
REMARK  163  A    between atoms: _399  and  _400
REMARK  164  A    between atoms: _399  and  _402
REMARK  165  A    between atoms: _402  and  _403
REMARK  166  A    between atoms: _408  and  _409
REMARK  167  A    between atoms: _411  and  _413
REMARK  168  A    between atoms: _413  and  _414
REMARK  169  A    between atoms: _417  and  _419
REMARK  170  A    between atoms: _419  and  _420
REMARK  171  A    between atoms: _419  and  _422
REMARK  172  A    between atoms: _422  and  _423
REMARK  173  A    between atoms: _426  and  _428
REMARK  174  A    between atoms: _428  and  _429
REMARK  175  A    between atoms: _428  and  _431
REMARK  176  A    between atoms: _431  and  _432
REMARK  177  A    between atoms: _432  and  _433
REMARK  178  A    between atoms: _433  and  _434
REMARK  179  A    between atoms: _434  and  _435
REMARK  180  A    between atoms: _439  and  _441
REMARK  181  A    between atoms: _441  and  _442
REMARK  182  A    between atoms: _441  and  _444
REMARK  183  A    between atoms: _444  and  _445
REMARK  184  A    between atoms: _450  and  _451
REMARK  185  A    between atoms: _453  and  _455
REMARK  186  A    between atoms: _455  and  _456
REMARK  187  A    between atoms: _455  and  _458
REMARK  188  A    between atoms: _458  and  _459
REMARK  189  A    between atoms: _464  and  _466
REMARK  190  A    between atoms: _466  and  _467
REMARK  191  A    between atoms: _469  and  _471
REMARK  192  A    between atoms: _471  and  _472
REMARK  193  A    between atoms: _471  and  _474
REMARK  194  A    between atoms: _474  and  _475
REMARK  195  A    between atoms: _478  and  _480
REMARK  196  A    between atoms: _480  and  _481
REMARK  197  A    between atoms: _480  and  _483
REMARK  198  A    between atoms: _486  and  _488
REMARK  199  A    between atoms: _488  and  _489
REMARK  200  A    between atoms: _488  and  _491
REMARK  201  A    between atoms: _491  and  _492
REMARK  202  A    between atoms: _495  and  _497
REMARK  203  A    between atoms: _497  and  _498
REMARK  204  A    between atoms: _497  and  _500
REMARK  205  A    between atoms: _500  and  _501
REMARK  206  A    between atoms: _507  and  _509
REMARK  207  A    between atoms: _509  and  _510
REMARK  208  A    between atoms: _509  and  _512
REMARK  209  A    between atoms: _512  and  _513
REMARK  210  A    between atoms: _513  and  _514
REMARK  211  A    between atoms: _519  and  _521
REMARK  212  A    between atoms: _521  and  _522
REMARK  213  A    between atoms: _525  and  _527
REMARK  214  A    between atoms: _527  and  _528
REMARK  215  A    between atoms: _531  and  _533
REMARK  216  A    between atoms: _533  and  _534
REMARK  217  A    between atoms: _533  and  _536
REMARK  218  A    between atoms: _536  and  _537
REMARK  219  A    between atoms: _540  and  _542
REMARK  220  A    between atoms: _542  and  _543
REMARK  221  A    between atoms: _542  and  _545
REMARK  222  A    between atoms: _545  and  _546
REMARK  223  A    between atoms: _551  and  _552
REMARK  224  A    between atoms: _554  and  _556
REMARK  225  A    between atoms: _556  and  _557
REMARK  226  A    between atoms: _560  and  _562
REMARK  227  A    between atoms: _562  and  _563
REMARK  228  A    between atoms: _567  and  _568
REMARK  229  A    between atoms: _573  and  _575
REMARK  230  A    between atoms: _575  and  _576
REMARK  231  A    between atoms: _575  and  _578
REMARK  232  A    between atoms: _578  and  _579
REMARK  233  A    between atoms: _585  and  _587
REMARK  234  A    between atoms: _587  and  _588
REMARK  235  A    between atoms: _587  and  _590
REMARK  236  A    between atoms: _590  and  _591
REMARK  237  A    between atoms: _596  and  _597
REMARK  238  A    between atoms: _599  and  _601
REMARK  239  A    between atoms: _601  and  _602
REMARK  240  A    between atoms: _601  and  _604
REMARK  241  A    between atoms: _604  and  _605
REMARK  242  A    between atoms: _605  and  _606
REMARK  243  A    between atoms: _606  and  _607
REMARK  244  A    between atoms: _607  and  _608
REMARK  245  A    between atoms: _612  and  _614
REMARK  246  A    between atoms: _614  and  _615
REMARK  247  A    between atoms: _614  and  _617
REMARK                            x       y       z     vdW  Elec       q    Type
REMARK                         _______ _______ _______ _____ _____    ______ ____
ROOT
ATOM      1  O   HOH     1      18.597   1.481  29.728  0.00  0.00    +0.000 OA
ENDROOT
TORSDOF 0
REMARK  Name = ../refined-set-2016/2evl/2evl_pocket.pdb
REMARK  247 active torsions:
REMARK  status: ('A' for Active; 'I' for Inactive)
REMARK    1  A    between atoms: _1  and  _3
REMARK    2  A    between atoms: _3  and  _4
REMARK    3  A    between atoms: _3  and  _6
REMARK    4  A    between atoms: _6  and  _7
REMARK    5  A    between atoms: _13  and  _15
REMARK    6  A    between atoms: _15  and  _16
REMARK    7  A    between atoms: _15  and  _18
REMARK    8  A    between atoms: _18  and  _19
REMARK    9  A    between atoms: _22  and  _24
REMARK   10  A    between atoms: _24  and  _25
REMARK   11  A    between atoms: _24  and  _27
REMARK   12  A    between atoms: _30  and  _32
REMARK   13  A    between atoms: _32  and  _33
REMARK   14  A    between atoms: _32  and  _35
REMARK   15  A    between atoms: _35  and  _36
REMARK   16  A    between atoms: _42  and  _44
REMARK   17  A    between atoms: _44  and  _45
REMARK   18  A    between atoms: _44  and  _47
REMARK   19  A    between atoms: _47  and  _48
REMARK   20  A    between atoms: _52  and  _53
REMARK   21  A    between atoms: _58  and  _60
REMARK   22  A    between atoms: _60  and  _61
REMARK   23  A    between atoms: _60  and  _63
REMARK   24  A    between atoms: _63  and  _64
REMARK   25  A    between atoms: _67  and  _69
REMARK   26  A    between atoms: _69  and  _70
REMARK   27  A    between atoms: _69  and  _72
REMARK   28  A    between atoms: _72  and  _73
REMARK   29  A    between atoms: _73  and  _74
REMARK   30  A    between atoms: _74  and  _75
REMARK   31  A    between atoms: _75  and  _76
REMARK   32  A    between atoms: _80  and  _82
REMARK   33  A    between atoms: _82  and  _83
REMARK   34  A    between atoms: _86  and  _88
REMARK   35  A    between atoms: _88  and  _89
REMARK   36  A    between atoms: _88  and  _91
REMARK   37  A    between atoms: _91  and  _92
REMARK   38  A    between atoms: _95  and  _97
REMARK   39  A    between atoms: _97  and  _98
REMARK   40  A    between atoms: _97  and  _100
REMARK   41  A    between atoms: _100  and  _101
REMARK   42  A    between atoms: _104  and  _106
REMARK   43  A    between atoms: _106  and  _107
REMARK   44  A    between atoms: _109  and  _111
REMARK   45  A    between atoms: _111  and  _112
REMARK   46  A    between atoms: _111  and  _114
REMARK   47  A    between atoms: _114  and  _115
REMARK   48  A    between atoms: _120  and  _122
REMARK   49  A    between atoms: _122  and  _123
REMARK   50  A    between atoms: _122  and  _125
REMARK   51  A    between atoms: _125  and  _126
REMARK   52  A    between atoms: _129  and  _131
REMARK   53  A    between atoms: _131  and  _132
REMARK   54  A    between atoms: _131  and  _134
REMARK   55  A    between atoms: _134  and  _135
REMARK   56  A    between atoms: _135  and  _136
REMARK   57  A    between atoms: _136  and  _137
REMARK   58  A    between atoms: _137  and  _138
REMARK   59  A    between atoms: _142  and  _144
REMARK   60  A    between atoms: _144  and  _145
REMARK   61  A    between atoms: _144  and  _147
REMARK   62  A    between atoms: _147  and  _148
REMARK   63  A    between atoms: _151  and  _153
REMARK   64  A    between atoms: _153  and  _154
REMARK   65  A    between atoms: _153  and  _156
REMARK   66  A    between atoms: _156  and  _157
REMARK   67  A    between atoms: _157  and  _158
REMARK   68  A    between atoms: _158  and  _159
REMARK   69  A    between atoms: _159  and  _160
REMARK   70  A    between atoms: _164  and  _166
REMARK   71  A    between atoms: _166  and  _167
REMARK   72  A    between atoms: _169  and  _171
REMARK   73  A    between atoms: _171  and  _172
REMARK   74  A    between atoms: _171  and  _174
REMARK   75  A    between atoms: _174  and  _175
REMARK   76  A    between atoms: _178  and  _180
REMARK   77  A    between atoms: _180  and  _181
REMARK   78  A    between atoms: _184  and  _186
REMARK   79  A    between atoms: _186  and  _187
REMARK   80  A    between atoms: _186  and  _189
REMARK   81  A    between atoms: _189  and  _190
REMARK   82  A    between atoms: _193  and  _195
REMARK   83  A    between atoms: _195  and  _196
REMARK   84  A    between atoms: _195  and  _198
REMARK   85  A    between atoms: _198  and  _199
REMARK   86  A    between atoms: _199  and  _200
REMARK   87  A    between atoms: _202  and  _204
REMARK   88  A    between atoms: _204  and  _205
REMARK   89  A    between atoms: _204  and  _207
REMARK   90  A    between atoms: _207  and  _208
REMARK   91  A    between atoms: _218  and  _220
REMARK   92  A    between atoms: _220  and  _221
REMARK   93  A    between atoms: _220  and  _223
REMARK   94  A    between atoms: _223  and  _224
REMARK   95  A    between atoms: _227  and  _229
REMARK   96  A    between atoms: _229  and  _230
REMARK   97  A    between atoms: _229  and  _232
REMARK   98  A    between atoms: _232  and  _233
REMARK   99  A    between atoms: _233  and  _234
REMARK  100  A    between atoms: _234  and  _235
REMARK  101  A    between atoms: _235  and  _236
REMARK  102  A    between atoms: _240  and  _242
REMARK  103  A    between atoms: _242  and  _243
REMARK  104  A    between atoms: _242  and  _245
REMARK  105  A    between atoms: _245  and  _246
REMARK  106  A    between atoms: _246  and  _247
REMARK  107  A    between atoms: _247  and  _248
REMARK  108  A    between atoms: _257  and  _259
REMARK  109  A    between atoms: _259  and  _260
REMARK  110  A    between atoms: _262  and  _264
REMARK  111  A    between atoms: _264  and  _265
REMARK  112  A    between atoms: _264  and  _267
REMARK  113  A    between atoms: _267  and  _268
REMARK  114  A    between atoms: _271  and  _273
REMARK  115  A    between atoms: _273  and  _274
REMARK  116  A    between atoms: _273  and  _276
REMARK  117  A    between atoms: _276  and  _277
REMARK  118  A    between atoms: _277  and  _278
REMARK  119  A    between atoms: _278  and  _279
REMARK  120  A    between atoms: _288  and  _290
REMARK  121  A    between atoms: _290  and  _291
REMARK  122  A    between atoms: _290  and  _293
REMARK  123  A    between atoms: _293  and  _294
REMARK  124  A    between atoms: _300  and  _302
REMARK  125  A    between atoms: _302  and  _303
REMARK  126  A    between atoms: _302  and  _305
REMARK  127  A    between atoms: _305  and  _306
REMARK  128  A    between atoms: _309  and  _311
REMARK  129  A    between atoms: _311  and  _312
REMARK  130  A    between atoms: _311  and  _314
REMARK  131  A    between atoms: _314  and  _315
REMARK  132  A    between atoms: _321  and  _323
REMARK  133  A    between atoms: _323  and  _324
REMARK  134  A    between atoms: _323  and  _326
REMARK  135  A    between atoms: _326  and  _327
REMARK  136  A    between atoms: _330  and  _332
REMARK  137  A    between atoms: _332  and  _333
REMARK  138  A    between atoms: _332  and  _335
REMARK  139  A    between atoms: _335  and  _336
REMARK  140  A    between atoms: _339  and  _341
REMARK  141  A    between atoms: _341  and  _342
REMARK  142  A    between atoms: _341  and  _344
REMARK  143  A    between atoms: _344  and  _345
REMARK  144  A    between atoms: _348  and  _350
REMARK  145  A    between atoms: _350  and  _351
REMARK  146  A    between atoms: _350  and  _353
REMARK  147  A    between atoms: _353  and  _354
REMARK  148  A    between atoms: _354  and  _355
REMARK  149  A    between atoms: _355  and  _356
REMARK  150  A    between atoms: _365  and  _367
REMARK  151  A    between atoms: _367  and  _368
REMARK  152  A    between atoms: _367  and  _370
REMARK  153  A    between atoms: _370  and  _371
REMARK  154  A    between atoms: _376  and  _378
REMARK  155  A    between atoms: _378  and  _379
REMARK  156  A    between atoms: _382  and  _384
REMARK  157  A    between atoms: _384  and  _385
REMARK  158  A    between atoms: _384  and  _387
REMARK  159  A    between atoms: _387  and  _388
REMARK  160  A    between atoms: _391  and  _393
REMARK  161  A    between atoms: _393  and  _394
REMARK  162  A    between atoms: _397  and  _399
REMARK  163  A    between atoms: _399  and  _400
REMARK  164  A    between atoms: _399  and  _402
REMARK  165  A    between atoms: _402  and  _403
REMARK  166  A    between atoms: _408  and  _409
REMARK  167  A    between atoms: _411  and  _413
REMARK  168  A    between atoms: _413  and  _414
REMARK  169  A    between atoms: _417  and  _419
REMARK  170  A    between atoms: _419  and  _420
REMARK  171  A    between atoms: _419  and  _422
REMARK  172  A    between atoms: _422  and  _423
REMARK  173  A    between atoms: _426  and  _428
REMARK  174  A    between atoms: _428  and  _429
REMARK  175  A    between atoms: _428  and  _431
REMARK  176  A    between atoms: _431  and  _432
REMARK  177  A    between atoms: _432  and  _433
REMARK  178  A    between atoms: _433  and  _434
REMARK  179  A    between atoms: _434  and  _435
REMARK  180  A    between atoms: _439  and  _441
REMARK  181  A    between atoms: _441  and  _442
REMARK  182  A    between atoms: _441  and  _444
REMARK  183  A    between atoms: _444  and  _445
REMARK  184  A    between atoms: _450  and  _451
REMARK  185  A    between atoms: _453  and  _455
REMARK  186  A    between atoms: _455  and  _456
REMARK  187  A    between atoms: _455  and  _458
REMARK  188  A    between atoms: _458  and  _459
REMARK  189  A    between atoms: _464  and  _466
REMARK  190  A    between atoms: _466  and  _467
REMARK  191  A    between atoms: _469  and  _471
REMARK  192  A    between atoms: _471  and  _472
REMARK  193  A    between atoms: _471  and  _474
REMARK  194  A    between atoms: _474  and  _475
REMARK  195  A    between atoms: _478  and  _480
REMARK  196  A    between atoms: _480  and  _481
REMARK  197  A    between atoms: _480  and  _483
REMARK  198  A    between atoms: _486  and  _488
REMARK  199  A    between atoms: _488  and  _489
REMARK  200  A    between atoms: _488  and  _491
REMARK  201  A    between atoms: _491  and  _492
REMARK  202  A    between atoms: _495  and  _497
REMARK  203  A    between atoms: _497  and  _498
REMARK  204  A    between atoms: _497  and  _500
REMARK  205  A    between atoms: _500  and  _501
REMARK  206  A    between atoms: _507  and  _509
REMARK  207  A    between atoms: _509  and  _510
REMARK  208  A    between atoms: _509  and  _512
REMARK  209  A    between atoms: _512  and  _513
REMARK  210  A    between atoms: _513  and  _514
REMARK  211  A    between atoms: _519  and  _521
REMARK  212  A    between atoms: _521  and  _522
REMARK  213  A    between atoms: _525  and  _527
REMARK  214  A    between atoms: _527  and  _528
REMARK  215  A    between atoms: _531  and  _533
REMARK  216  A    between atoms: _533  and  _534
REMARK  217  A    between atoms: _533  and  _536
REMARK  218  A    between atoms: _536  and  _537
REMARK  219  A    between atoms: _540  and  _542
REMARK  220  A    between atoms: _542  and  _543
REMARK  221  A    between atoms: _542  and  _545
REMARK  222  A    between atoms: _545  and  _546
REMARK  223  A    between atoms: _551  and  _552
REMARK  224  A    between atoms: _554  and  _556
REMARK  225  A    between atoms: _556  and  _557
REMARK  226  A    between atoms: _560  and  _562
REMARK  227  A    between atoms: _562  and  _563
REMARK  228  A    between atoms: _567  and  _568
REMARK  229  A    between atoms: _573  and  _575
REMARK  230  A    between atoms: _575  and  _576
REMARK  231  A    between atoms: _575  and  _578
REMARK  232  A    between atoms: _578  and  _579
REMARK  233  A    between atoms: _585  and  _587
REMARK  234  A    between atoms: _587  and  _588
REMARK  235  A    between atoms: _587  and  _590
REMARK  236  A    between atoms: _590  and  _591
REMARK  237  A    between atoms: _596  and  _597
REMARK  238  A    between atoms: _599  and  _601
REMARK  239  A    between atoms: _601  and  _602
REMARK  240  A    between atoms: _601  and  _604
REMARK  241  A    between atoms: _604  and  _605
REMARK  242  A    between atoms: _605  and  _606
REMARK  243  A    between atoms: _606  and  _607
REMARK  244  A    between atoms: _607  and  _608
REMARK  245  A    between atoms: _612  and  _614
REMARK  246  A    between atoms: _614  and  _615
REMARK  247  A    between atoms: _614  and  _617
REMARK                            x       y       z     vdW  Elec       q    Type
REMARK                         _______ _______ _______ _____ _____    ______ ____
ROOT
ATOM      1  O   HOH     1      19.580   0.369  25.587  0.00  0.00    +0.000 OA
ENDROOT
TORSDOF 0
REMARK  Name = ../refined-set-2016/2evl/2evl_pocket.pdb
REMARK  247 active torsions:
REMARK  status: ('A' for Active; 'I' for Inactive)
REMARK    1  A    between atoms: _1  and  _3
REMARK    2  A    between atoms: _3  and  _4
REMARK    3  A    between atoms: _3  and  _6
REMARK    4  A    between atoms: _6  and  _7
REMARK    5  A    between atoms: _13  and  _15
REMARK    6  A    between atoms: _15  and  _16
REMARK    7  A    between atoms: _15  and  _18
REMARK    8  A    between atoms: _18  and  _19
REMARK    9  A    between atoms: _22  and  _24
REMARK   10  A    between atoms: _24  and  _25
REMARK   11  A    between atoms: _24  and  _27
REMARK   12  A    between atoms: _30  and  _32
REMARK   13  A    between atoms: _32  and  _33
REMARK   14  A    between atoms: _32  and  _35
REMARK   15  A    between atoms: _35  and  _36
REMARK   16  A    between atoms: _42  and  _44
REMARK   17  A    between atoms: _44  and  _45
REMARK   18  A    between atoms: _44  and  _47
REMARK   19  A    between atoms: _47  and  _48
REMARK   20  A    between atoms: _52  and  _53
REMARK   21  A    between atoms: _58  and  _60
REMARK   22  A    between atoms: _60  and  _61
REMARK   23  A    between atoms: _60  and  _63
REMARK   24  A    between atoms: _63  and  _64
REMARK   25  A    between atoms: _67  and  _69
REMARK   26  A    between atoms: _69  and  _70
REMARK   27  A    between atoms: _69  and  _72
REMARK   28  A    between atoms: _72  and  _73
REMARK   29  A    between atoms: _73  and  _74
REMARK   30  A    between atoms: _74  and  _75
REMARK   31  A    between atoms: _75  and  _76
REMARK   32  A    between atoms: _80  and  _82
REMARK   33  A    between atoms: _82  and  _83
REMARK   34  A    between atoms: _86  and  _88
REMARK   35  A    between atoms: _88  and  _89
REMARK   36  A    between atoms: _88  and  _91
REMARK   37  A    between atoms: _91  and  _92
REMARK   38  A    between atoms: _95  and  _97
REMARK   39  A    between atoms: _97  and  _98
REMARK   40  A    between atoms: _97  and  _100
REMARK   41  A    between atoms: _100  and  _101
REMARK   42  A    between atoms: _104  and  _106
REMARK   43  A    between atoms: _106  and  _107
REMARK   44  A    between atoms: _109  and  _111
REMARK   45  A    between atoms: _111  and  _112
REMARK   46  A    between atoms: _111  and  _114
REMARK   47  A    between atoms: _114  and  _115
REMARK   48  A    between atoms: _120  and  _122
REMARK   49  A    between atoms: _122  and  _123
REMARK   50  A    between atoms: _122  and  _125
REMARK   51  A    between atoms: _125  and  _126
REMARK   52  A    between atoms: _129  and  _131
REMARK   53  A    between atoms: _131  and  _132
REMARK   54  A    between atoms: _131  and  _134
REMARK   55  A    between atoms: _134  and  _135
REMARK   56  A    between atoms: _135  and  _136
REMARK   57  A    between atoms: _136  and  _137
REMARK   58  A    between atoms: _137  and  _138
REMARK   59  A    between atoms: _142  and  _144
REMARK   60  A    between atoms: _144  and  _145
REMARK   61  A    between atoms: _144  and  _147
REMARK   62  A    between atoms: _147  and  _148
REMARK   63  A    between atoms: _151  and  _153
REMARK   64  A    between atoms: _153  and  _154
REMARK   65  A    between atoms: _153  and  _156
REMARK   66  A    between atoms: _156  and  _157
REMARK   67  A    between atoms: _157  and  _158
REMARK   68  A    between atoms: _158  and  _159
REMARK   69  A    between atoms: _159  and  _160
REMARK   70  A    between atoms: _164  and  _166
REMARK   71  A    between atoms: _166  and  _167
REMARK   72  A    between atoms: _169  and  _171
REMARK   73  A    between atoms: _171  and  _172
REMARK   74  A    between atoms: _171  and  _174
REMARK   75  A    between atoms: _174  and  _175
REMARK   76  A    between atoms: _178  and  _180
REMARK   77  A    between atoms: _180  and  _181
REMARK   78  A    between atoms: _184  and  _186
REMARK   79  A    between atoms: _186  and  _187
REMARK   80  A    between atoms: _186  and  _189
REMARK   81  A    between atoms: _189  and  _190
REMARK   82  A    between atoms: _193  and  _195
REMARK   83  A    between atoms: _195  and  _196
REMARK   84  A    between atoms: _195  and  _198
REMARK   85  A    between atoms: _198  and  _199
REMARK   86  A    between atoms: _199  and  _200
REMARK   87  A    between atoms: _202  and  _204
REMARK   88  A    between atoms: _204  and  _205
REMARK   89  A    between atoms: _204  and  _207
REMARK   90  A    between atoms: _207  and  _208
REMARK   91  A    between atoms: _218  and  _220
REMARK   92  A    between atoms: _220  and  _221
REMARK   93  A    between atoms: _220  and  _223
REMARK   94  A    between atoms: _223  and  _224
REMARK   95  A    between atoms: _227  and  _229
REMARK   96  A    between atoms: _229  and  _230
REMARK   97  A    between atoms: _229  and  _232
REMARK   98  A    between atoms: _232  and  _233
REMARK   99  A    between atoms: _233  and  _234
REMARK  100  A    between atoms: _234  and  _235
REMARK  101  A    between atoms: _235  and  _236
REMARK  102  A    between atoms: _240  and  _242
REMARK  103  A    between atoms: _242  and  _243
REMARK  104  A    between atoms: _242  and  _245
REMARK  105  A    between atoms: _245  and  _246
REMARK  106  A    between atoms: _246  and  _247
REMARK  107  A    between atoms: _247  and  _248
REMARK  108  A    between atoms: _257  and  _259
REMARK  109  A    between atoms: _259  and  _260
REMARK  110  A    between atoms: _262  and  _264
REMARK  111  A    between atoms: _264  and  _265
REMARK  112  A    between atoms: _264  and  _267
REMARK  113  A    between atoms: _267  and  _268
REMARK  114  A    between atoms: _271  and  _273
REMARK  115  A    between atoms: _273  and  _274
REMARK  116  A    between atoms: _273  and  _276
REMARK  117  A    between atoms: _276  and  _277
REMARK  118  A    between atoms: _277  and  _278
REMARK  119  A    between atoms: _278  and  _279
REMARK  120  A    between atoms: _288  and  _290
REMARK  121  A    between atoms: _290  and  _291
REMARK  122  A    between atoms: _290  and  _293
REMARK  123  A    between atoms: _293  and  _294
REMARK  124  A    between atoms: _300  and  _302
REMARK  125  A    between atoms: _302  and  _303
REMARK  126  A    between atoms: _302  and  _305
REMARK  127  A    between atoms: _305  and  _306
REMARK  128  A    between atoms: _309  and  _311
REMARK  129  A    between atoms: _311  and  _312
REMARK  130  A    between atoms: _311  and  _314
REMARK  131  A    between atoms: _314  and  _315
REMARK  132  A    between atoms: _321  and  _323
REMARK  133  A    between atoms: _323  and  _324
REMARK  134  A    between atoms: _323  and  _326
REMARK  135  A    between atoms: _326  and  _327
REMARK  136  A    between atoms: _330  and  _332
REMARK  137  A    between atoms: _332  and  _333
REMARK  138  A    between atoms: _332  and  _335
REMARK  139  A    between atoms: _335  and  _336
REMARK  140  A    between atoms: _339  and  _341
REMARK  141  A    between atoms: _341  and  _342
REMARK  142  A    between atoms: _341  and  _344
REMARK  143  A    between atoms: _344  and  _345
REMARK  144  A    between atoms: _348  and  _350
REMARK  145  A    between atoms: _350  and  _351
REMARK  146  A    between atoms: _350  and  _353
REMARK  147  A    between atoms: _353  and  _354
REMARK  148  A    between atoms: _354  and  _355
REMARK  149  A    between atoms: _355  and  _356
REMARK  150  A    between atoms: _365  and  _367
REMARK  151  A    between atoms: _367  and  _368
REMARK  152  A    between atoms: _367  and  _370
REMARK  153  A    between atoms: _370  and  _371
REMARK  154  A    between atoms: _376  and  _378
REMARK  155  A    between atoms: _378  and  _379
REMARK  156  A    between atoms: _382  and  _384
REMARK  157  A    between atoms: _384  and  _385
REMARK  158  A    between atoms: _384  and  _387
REMARK  159  A    between atoms: _387  and  _388
REMARK  160  A    between atoms: _391  and  _393
REMARK  161  A    between atoms: _393  and  _394
REMARK  162  A    between atoms: _397  and  _399
REMARK  163  A    between atoms: _399  and  _400
REMARK  164  A    between atoms: _399  and  _402
REMARK  165  A    between atoms: _402  and  _403
REMARK  166  A    between atoms: _408  and  _409
REMARK  167  A    between atoms: _411  and  _413
REMARK  168  A    between atoms: _413  and  _414
REMARK  169  A    between atoms: _417  and  _419
REMARK  170  A    between atoms: _419  and  _420
REMARK  171  A    between atoms: _419  and  _422
REMARK  172  A    between atoms: _422  and  _423
REMARK  173  A    between atoms: _426  and  _428
REMARK  174  A    between atoms: _428  and  _429
REMARK  175  A    between atoms: _428  and  _431
REMARK  176  A    between atoms: _431  and  _432
REMARK  177  A    between atoms: _432  and  _433
REMARK  178  A    between atoms: _433  and  _434
REMARK  179  A    between atoms: _434  and  _435
REMARK  180  A    between atoms: _439  and  _441
REMARK  181  A    between atoms: _441  and  _442
REMARK  182  A    between atoms: _441  and  _444
REMARK  183  A    between atoms: _444  and  _445
REMARK  184  A    between atoms: _450  and  _451
REMARK  185  A    between atoms: _453  and  _455
REMARK  186  A    between atoms: _455  and  _456
REMARK  187  A    between atoms: _455  and  _458
REMARK  188  A    between atoms: _458  and  _459
REMARK  189  A    between atoms: _464  and  _466
REMARK  190  A    between atoms: _466  and  _467
REMARK  191  A    between atoms: _469  and  _471
REMARK  192  A    between atoms: _471  and  _472
REMARK  193  A    between atoms: _471  and  _474
REMARK  194  A    between atoms: _474  and  _475
REMARK  195  A    between atoms: _478  and  _480
REMARK  196  A    between atoms: _480  and  _481
REMARK  197  A    between atoms: _480  and  _483
REMARK  198  A    between atoms: _486  and  _488
REMARK  199  A    between atoms: _488  and  _489
REMARK  200  A    between atoms: _488  and  _491
REMARK  201  A    between atoms: _491  and  _492
REMARK  202  A    between atoms: _495  and  _497
REMARK  203  A    between atoms: _497  and  _498
REMARK  204  A    between atoms: _497  and  _500
REMARK  205  A    between atoms: _500  and  _501
REMARK  206  A    between atoms: _507  and  _509
REMARK  207  A    between atoms: _509  and  _510
REMARK  208  A    between atoms: _509  and  _512
REMARK  209  A    between atoms: _512  and  _513
REMARK  210  A    between atoms: _513  and  _514
REMARK  211  A    between atoms: _519  and  _521
REMARK  212  A    between atoms: _521  and  _522
REMARK  213  A    between atoms: _525  and  _527
REMARK  214  A    between atoms: _527  and  _528
REMARK  215  A    between atoms: _531  and  _533
REMARK  216  A    between atoms: _533  and  _534
REMARK  217  A    between atoms: _533  and  _536
REMARK  218  A    between atoms: _536  and  _537
REMARK  219  A    between atoms: _540  and  _542
REMARK  220  A    between atoms: _542  and  _543
REMARK  221  A    between atoms: _542  and  _545
REMARK  222  A    between atoms: _545  and  _546
REMARK  223  A    between atoms: _551  and  _552
REMARK  224  A    between atoms: _554  and  _556
REMARK  225  A    between atoms: _556  and  _557
REMARK  226  A    between atoms: _560  and  _562
REMARK  227  A    between atoms: _562  and  _563
REMARK  228  A    between atoms: _567  and  _568
REMARK  229  A    between atoms: _573  and  _575
REMARK  230  A    between atoms: _575  and  _576
REMARK  231  A    between atoms: _575  and  _578
REMARK  232  A    between atoms: _578  and  _579
REMARK  233  A    between atoms: _585  and  _587
REMARK  234  A    between atoms: _587  and  _588
REMARK  235  A    between atoms: _587  and  _590
REMARK  236  A    between atoms: _590  and  _591
REMARK  237  A    between atoms: _596  and  _597
REMARK  238  A    between atoms: _599  and  _601
REMARK  239  A    between atoms: _601  and  _602
REMARK  240  A    between atoms: _601  and  _604
REMARK  241  A    between atoms: _604  and  _605
REMARK  242  A    between atoms: _605  and  _606
REMARK  243  A    between atoms: _606  and  _607
REMARK  244  A    between atoms: _607  and  _608
REMARK  245  A    between atoms: _612  and  _614
REMARK  246  A    between atoms: _614  and  _615
REMARK  247  A    between atoms: _614  and  _617
REMARK                            x       y       z     vdW  Elec       q    Type
REMARK                         _______ _______ _______ _____ _____    ______ ____
ROOT
ATOM      1  O   HOH     1      21.359   0.778  22.669  0.00  0.00    +0.000 OA
ENDROOT
TORSDOF 0
REMARK  Name = ../refined-set-2016/2evl/2evl_pocket.pdb
REMARK  247 active torsions:
REMARK  status: ('A' for Active; 'I' for Inactive)
REMARK    1  A    between atoms: _1  and  _3
REMARK    2  A    between atoms: _3  and  _4
REMARK    3  A    between atoms: _3  and  _6
REMARK    4  A    between atoms: _6  and  _7
REMARK    5  A    between atoms: _13  and  _15
REMARK    6  A    between atoms: _15  and  _16
REMARK    7  A    between atoms: _15  and  _18
REMARK    8  A    between atoms: _18  and  _19
REMARK    9  A    between atoms: _22  and  _24
REMARK   10  A    between atoms: _24  and  _25
REMARK   11  A    between atoms: _24  and  _27
REMARK   12  A    between atoms: _30  and  _32
REMARK   13  A    between atoms: _32  and  _33
REMARK   14  A    between atoms: _32  and  _35
REMARK   15  A    between atoms: _35  and  _36
REMARK   16  A    between atoms: _42  and  _44
REMARK   17  A    between atoms: _44  and  _45
REMARK   18  A    between atoms: _44  and  _47
REMARK   19  A    between atoms: _47  and  _48
REMARK   20  A    between atoms: _52  and  _53
REMARK   21  A    between atoms: _58  and  _60
REMARK   22  A    between atoms: _60  and  _61
REMARK   23  A    between atoms: _60  and  _63
REMARK   24  A    between atoms: _63  and  _64
REMARK   25  A    between atoms: _67  and  _69
REMARK   26  A    between atoms: _69  and  _70
REMARK   27  A    between atoms: _69  and  _72
REMARK   28  A    between atoms: _72  and  _73
REMARK   29  A    between atoms: _73  and  _74
REMARK   30  A    between atoms: _74  and  _75
REMARK   31  A    between atoms: _75  and  _76
REMARK   32  A    between atoms: _80  and  _82
REMARK   33  A    between atoms: _82  and  _83
REMARK   34  A    between atoms: _86  and  _88
REMARK   35  A    between atoms: _88  and  _89
REMARK   36  A    between atoms: _88  and  _91
REMARK   37  A    between atoms: _91  and  _92
REMARK   38  A    between atoms: _95  and  _97
REMARK   39  A    between atoms: _97  and  _98
REMARK   40  A    between atoms: _97  and  _100
REMARK   41  A    between atoms: _100  and  _101
REMARK   42  A    between atoms: _104  and  _106
REMARK   43  A    between atoms: _106  and  _107
REMARK   44  A    between atoms: _109  and  _111
REMARK   45  A    between atoms: _111  and  _112
REMARK   46  A    between atoms: _111  and  _114
REMARK   47  A    between atoms: _114  and  _115
REMARK   48  A    between atoms: _120  and  _122
REMARK   49  A    between atoms: _122  and  _123
REMARK   50  A    between atoms: _122  and  _125
REMARK   51  A    between atoms: _125  and  _126
REMARK   52  A    between atoms: _129  and  _131
REMARK   53  A    between atoms: _131  and  _132
REMARK   54  A    between atoms: _131  and  _134
REMARK   55  A    between atoms: _134  and  _135
REMARK   56  A    between atoms: _135  and  _136
REMARK   57  A    between atoms: _136  and  _137
REMARK   58  A    between atoms: _137  and  _138
REMARK   59  A    between atoms: _142  and  _144
REMARK   60  A    between atoms: _144  and  _145
REMARK   61  A    between atoms: _144  and  _147
REMARK   62  A    between atoms: _147  and  _148
REMARK   63  A    between atoms: _151  and  _153
REMARK   64  A    between atoms: _153  and  _154
REMARK   65  A    between atoms: _153  and  _156
REMARK   66  A    between atoms: _156  and  _157
REMARK   67  A    between atoms: _157  and  _158
REMARK   68  A    between atoms: _158  and  _159
REMARK   69  A    between atoms: _159  and  _160
REMARK   70  A    between atoms: _164  and  _166
REMARK   71  A    between atoms: _166  and  _167
REMARK   72  A    between atoms: _169  and  _171
REMARK   73  A    between atoms: _171  and  _172
REMARK   74  A    between atoms: _171  and  _174
REMARK   75  A    between atoms: _174  and  _175
REMARK   76  A    between atoms: _178  and  _180
REMARK   77  A    between atoms: _180  and  _181
REMARK   78  A    between atoms: _184  and  _186
REMARK   79  A    between atoms: _186  and  _187
REMARK   80  A    between atoms: _186  and  _189
REMARK   81  A    between atoms: _189  and  _190
REMARK   82  A    between atoms: _193  and  _195
REMARK   83  A    between atoms: _195  and  _196
REMARK   84  A    between atoms: _195  and  _198
REMARK   85  A    between atoms: _198  and  _199
REMARK   86  A    between atoms: _199  and  _200
REMARK   87  A    between atoms: _202  and  _204
REMARK   88  A    between atoms: _204  and  _205
REMARK   89  A    between atoms: _204  and  _207
REMARK   90  A    between atoms: _207  and  _208
REMARK   91  A    between atoms: _218  and  _220
REMARK   92  A    between atoms: _220  and  _221
REMARK   93  A    between atoms: _220  and  _223
REMARK   94  A    between atoms: _223  and  _224
REMARK   95  A    between atoms: _227  and  _229
REMARK   96  A    between atoms: _229  and  _230
REMARK   97  A    between atoms: _229  and  _232
REMARK   98  A    between atoms: _232  and  _233
REMARK   99  A    between atoms: _233  and  _234
REMARK  100  A    between atoms: _234  and  _235
REMARK  101  A    between atoms: _235  and  _236
REMARK  102  A    between atoms: _240  and  _242
REMARK  103  A    between atoms: _242  and  _243
REMARK  104  A    between atoms: _242  and  _245
REMARK  105  A    between atoms: _245  and  _246
REMARK  106  A    between atoms: _246  and  _247
REMARK  107  A    between atoms: _247  and  _248
REMARK  108  A    between atoms: _257  and  _259
REMARK  109  A    between atoms: _259  and  _260
REMARK  110  A    between atoms: _262  and  _264
REMARK  111  A    between atoms: _264  and  _265
REMARK  112  A    between atoms: _264  and  _267
REMARK  113  A    between atoms: _267  and  _268
REMARK  114  A    between atoms: _271  and  _273
REMARK  115  A    between atoms: _273  and  _274
REMARK  116  A    between atoms: _273  and  _276
REMARK  117  A    between atoms: _276  and  _277
REMARK  118  A    between atoms: _277  and  _278
REMARK  119  A    between atoms: _278  and  _279
REMARK  120  A    between atoms: _288  and  _290
REMARK  121  A    between atoms: _290  and  _291
REMARK  122  A    between atoms: _290  and  _293
REMARK  123  A    between atoms: _293  and  _294
REMARK  124  A    between atoms: _300  and  _302
REMARK  125  A    between atoms: _302  and  _303
REMARK  126  A    between atoms: _302  and  _305
REMARK  127  A    between atoms: _305  and  _306
REMARK  128  A    between atoms: _309  and  _311
REMARK  129  A    between atoms: _311  and  _312
REMARK  130  A    between atoms: _311  and  _314
REMARK  131  A    between atoms: _314  and  _315
REMARK  132  A    between atoms: _321  and  _323
REMARK  133  A    between atoms: _323  and  _324
REMARK  134  A    between atoms: _323  and  _326
REMARK  135  A    between atoms: _326  and  _327
REMARK  136  A    between atoms: _330  and  _332
REMARK  137  A    between atoms: _332  and  _333
REMARK  138  A    between atoms: _332  and  _335
REMARK  139  A    between atoms: _335  and  _336
REMARK  140  A    between atoms: _339  and  _341
REMARK  141  A    between atoms: _341  and  _342
REMARK  142  A    between atoms: _341  and  _344
REMARK  143  A    between atoms: _344  and  _345
REMARK  144  A    between atoms: _348  and  _350
REMARK  145  A    between atoms: _350  and  _351
REMARK  146  A    between atoms: _350  and  _353
REMARK  147  A    between atoms: _353  and  _354
REMARK  148  A    between atoms: _354  and  _355
REMARK  149  A    between atoms: _355  and  _356
REMARK  150  A    between atoms: _365  and  _367
REMARK  151  A    between atoms: _367  and  _368
REMARK  152  A    between atoms: _367  and  _370
REMARK  153  A    between atoms: _370  and  _371
REMARK  154  A    between atoms: _376  and  _378
REMARK  155  A    between atoms: _378  and  _379
REMARK  156  A    between atoms: _382  and  _384
REMARK  157  A    between atoms: _384  and  _385
REMARK  158  A    between atoms: _384  and  _387
REMARK  159  A    between atoms: _387  and  _388
REMARK  160  A    between atoms: _391  and  _393
REMARK  161  A    between atoms: _393  and  _394
REMARK  162  A    between atoms: _397  and  _399
REMARK  163  A    between atoms: _399  and  _400
REMARK  164  A    between atoms: _399  and  _402
REMARK  165  A    between atoms: _402  and  _403
REMARK  166  A    between atoms: _408  and  _409
REMARK  167  A    between atoms: _411  and  _413
REMARK  168  A    between atoms: _413  and  _414
REMARK  169  A    between atoms: _417  and  _419
REMARK  170  A    between atoms: _419  and  _420
REMARK  171  A    between atoms: _419  and  _422
REMARK  172  A    between atoms: _422  and  _423
REMARK  173  A    between atoms: _426  and  _428
REMARK  174  A    between atoms: _428  and  _429
REMARK  175  A    between atoms: _428  and  _431
REMARK  176  A    between atoms: _431  and  _432
REMARK  177  A    between atoms: _432  and  _433
REMARK  178  A    between atoms: _433  and  _434
REMARK  179  A    between atoms: _434  and  _435
REMARK  180  A    between atoms: _439  and  _441
REMARK  181  A    between atoms: _441  and  _442
REMARK  182  A    between atoms: _441  and  _444
REMARK  183  A    between atoms: _444  and  _445
REMARK  184  A    between atoms: _450  and  _451
REMARK  185  A    between atoms: _453  and  _455
REMARK  186  A    between atoms: _455  and  _456
REMARK  187  A    between atoms: _455  and  _458
REMARK  188  A    between atoms: _458  and  _459
REMARK  189  A    between atoms: _464  and  _466
REMARK  190  A    between atoms: _466  and  _467
REMARK  191  A    between atoms: _469  and  _471
REMARK  192  A    between atoms: _471  and  _472
REMARK  193  A    between atoms: _471  and  _474
REMARK  194  A    between atoms: _474  and  _475
REMARK  195  A    between atoms: _478  and  _480
REMARK  196  A    between atoms: _480  and  _481
REMARK  197  A    between atoms: _480  and  _483
REMARK  198  A    between atoms: _486  and  _488
REMARK  199  A    between atoms: _488  and  _489
REMARK  200  A    between atoms: _488  and  _491
REMARK  201  A    between atoms: _491  and  _492
REMARK  202  A    between atoms: _495  and  _497
REMARK  203  A    between atoms: _497  and  _498
REMARK  204  A    between atoms: _497  and  _500
REMARK  205  A    between atoms: _500  and  _501
REMARK  206  A    between atoms: _507  and  _509
REMARK  207  A    between atoms: _509  and  _510
REMARK  208  A    between atoms: _509  and  _512
REMARK  209  A    between atoms: _512  and  _513
REMARK  210  A    between atoms: _513  and  _514
REMARK  211  A    between atoms: _519  and  _521
REMARK  212  A    between atoms: _521  and  _522
REMARK  213  A    between atoms: _525  and  _527
REMARK  214  A    between atoms: _527  and  _528
REMARK  215  A    between atoms: _531  and  _533
REMARK  216  A    between atoms: _533  and  _534
REMARK  217  A    between atoms: _533  and  _536
REMARK  218  A    between atoms: _536  and  _537
REMARK  219  A    between atoms: _540  and  _542
REMARK  220  A    between atoms: _542  and  _543
REMARK  221  A    between atoms: _542  and  _545
REMARK  222  A    between atoms: _545  and  _546
REMARK  223  A    between atoms: _551  and  _552
REMARK  224  A    between atoms: _554  and  _556
REMARK  225  A    between atoms: _556  and  _557
REMARK  226  A    between atoms: _560  and  _562
REMARK  227  A    between atoms: _562  and  _563
REMARK  228  A    between atoms: _567  and  _568
REMARK  229  A    between atoms: _573  and  _575
REMARK  230  A    between atoms: _575  and  _576
REMARK  231  A    between atoms: _575  and  _578
REMARK  232  A    between atoms: _578  and  _579
REMARK  233  A    between atoms: _585  and  _587
REMARK  234  A    between atoms: _587  and  _588
REMARK  235  A    between atoms: _587  and  _590
REMARK  236  A    between atoms: _590  and  _591
REMARK  237  A    between atoms: _596  and  _597
REMARK  238  A    between atoms: _599  and  _601
REMARK  239  A    between atoms: _601  and  _602
REMARK  240  A    between atoms: _601  and  _604
REMARK  241  A    between atoms: _604  and  _605
REMARK  242  A    between atoms: _605  and  _606
REMARK  243  A    between atoms: _606  and  _607
REMARK  244  A    between atoms: _607  and  _608
REMARK  245  A    between atoms: _612  and  _614
REMARK  246  A    between atoms: _614  and  _615
REMARK  247  A    between atoms: _614  and  _617
REMARK                            x       y       z     vdW  Elec       q    Type
REMARK                         _______ _______ _______ _____ _____    ______ ____
ROOT
ATOM      1  O   HOH     1       4.839  -8.249  31.023  0.00  0.00    +0.000 OA
ENDROOT
TORSDOF 0
REMARK  Name = ../refined-set-2016/2evl/2evl_pocket.pdb
REMARK  247 active torsions:
REMARK  status: ('A' for Active; 'I' for Inactive)
REMARK    1  A    between atoms: _1  and  _3
REMARK    2  A    between atoms: _3  and  _4
REMARK    3  A    between atoms: _3  and  _6
REMARK    4  A    between atoms: _6  and  _7
REMARK    5  A    between atoms: _13  and  _15
REMARK    6  A    between atoms: _15  and  _16
REMARK    7  A    between atoms: _15  and  _18
REMARK    8  A    between atoms: _18  and  _19
REMARK    9  A    between atoms: _22  and  _24
REMARK   10  A    between atoms: _24  and  _25
REMARK   11  A    between atoms: _24  and  _27
REMARK   12  A    between atoms: _30  and  _32
REMARK   13  A    between atoms: _32  and  _33
REMARK   14  A    between atoms: _32  and  _35
REMARK   15  A    between atoms: _35  and  _36
REMARK   16  A    between atoms: _42  and  _44
REMARK   17  A    between atoms: _44  and  _45
REMARK   18  A    between atoms: _44  and  _47
REMARK   19  A    between atoms: _47  and  _48
REMARK   20  A    between atoms: _52  and  _53
REMARK   21  A    between atoms: _58  and  _60
REMARK   22  A    between atoms: _60  and  _61
REMARK   23  A    between atoms: _60  and  _63
REMARK   24  A    between atoms: _63  and  _64
REMARK   25  A    between atoms: _67  and  _69
REMARK   26  A    between atoms: _69  and  _70
REMARK   27  A    between atoms: _69  and  _72
REMARK   28  A    between atoms: _72  and  _73
REMARK   29  A    between atoms: _73  and  _74
REMARK   30  A    between atoms: _74  and  _75
REMARK   31  A    between atoms: _75  and  _76
REMARK   32  A    between atoms: _80  and  _82
REMARK   33  A    between atoms: _82  and  _83
REMARK   34  A    between atoms: _86  and  _88
REMARK   35  A    between atoms: _88  and  _89
REMARK   36  A    between atoms: _88  and  _91
REMARK   37  A    between atoms: _91  and  _92
REMARK   38  A    between atoms: _95  and  _97
REMARK   39  A    between atoms: _97  and  _98
REMARK   40  A    between atoms: _97  and  _100
REMARK   41  A    between atoms: _100  and  _101
REMARK   42  A    between atoms: _104  and  _106
REMARK   43  A    between atoms: _106  and  _107
REMARK   44  A    between atoms: _109  and  _111
REMARK   45  A    between atoms: _111  and  _112
REMARK   46  A    between atoms: _111  and  _114
REMARK   47  A    between atoms: _114  and  _115
REMARK   48  A    between atoms: _120  and  _122
REMARK   49  A    between atoms: _122  and  _123
REMARK   50  A    between atoms: _122  and  _125
REMARK   51  A    between atoms: _125  and  _126
REMARK   52  A    between atoms: _129  and  _131
REMARK   53  A    between atoms: _131  and  _132
REMARK   54  A    between atoms: _131  and  _134
REMARK   55  A    between atoms: _134  and  _135
REMARK   56  A    between atoms: _135  and  _136
REMARK   57  A    between atoms: _136  and  _137
REMARK   58  A    between atoms: _137  and  _138
REMARK   59  A    between atoms: _142  and  _144
REMARK   60  A    between atoms: _144  and  _145
REMARK   61  A    between atoms: _144  and  _147
REMARK   62  A    between atoms: _147  and  _148
REMARK   63  A    between atoms: _151  and  _153
REMARK   64  A    between atoms: _153  and  _154
REMARK   65  A    between atoms: _153  and  _156
REMARK   66  A    between atoms: _156  and  _157
REMARK   67  A    between atoms: _157  and  _158
REMARK   68  A    between atoms: _158  and  _159
REMARK   69  A    between atoms: _159  and  _160
REMARK   70  A    between atoms: _164  and  _166
REMARK   71  A    between atoms: _166  and  _167
REMARK   72  A    between atoms: _169  and  _171
REMARK   73  A    between atoms: _171  and  _172
REMARK   74  A    between atoms: _171  and  _174
REMARK   75  A    between atoms: _174  and  _175
REMARK   76  A    between atoms: _178  and  _180
REMARK   77  A    between atoms: _180  and  _181
REMARK   78  A    between atoms: _184  and  _186
REMARK   79  A    between atoms: _186  and  _187
REMARK   80  A    between atoms: _186  and  _189
REMARK   81  A    between atoms: _189  and  _190
REMARK   82  A    between atoms: _193  and  _195
REMARK   83  A    between atoms: _195  and  _196
REMARK   84  A    between atoms: _195  and  _198
REMARK   85  A    between atoms: _198  and  _199
REMARK   86  A    between atoms: _199  and  _200
REMARK   87  A    between atoms: _202  and  _204
REMARK   88  A    between atoms: _204  and  _205
REMARK   89  A    between atoms: _204  and  _207
REMARK   90  A    between atoms: _207  and  _208
REMARK   91  A    between atoms: _218  and  _220
REMARK   92  A    between atoms: _220  and  _221
REMARK   93  A    between atoms: _220  and  _223
REMARK   94  A    between atoms: _223  and  _224
REMARK   95  A    between atoms: _227  and  _229
REMARK   96  A    between atoms: _229  and  _230
REMARK   97  A    between atoms: _229  and  _232
REMARK   98  A    between atoms: _232  and  _233
REMARK   99  A    between atoms: _233  and  _234
REMARK  100  A    between atoms: _234  and  _235
REMARK  101  A    between atoms: _235  and  _236
REMARK  102  A    between atoms: _240  and  _242
REMARK  103  A    between atoms: _242  and  _243
REMARK  104  A    between atoms: _242  and  _245
REMARK  105  A    between atoms: _245  and  _246
REMARK  106  A    between atoms: _246  and  _247
REMARK  107  A    between atoms: _247  and  _248
REMARK  108  A    between atoms: _257  and  _259
REMARK  109  A    between atoms: _259  and  _260
REMARK  110  A    between atoms: _262  and  _264
REMARK  111  A    between atoms: _264  and  _265
REMARK  112  A    between atoms: _264  and  _267
REMARK  113  A    between atoms: _267  and  _268
REMARK  114  A    between atoms: _271  and  _273
REMARK  115  A    between atoms: _273  and  _274
REMARK  116  A    between atoms: _273  and  _276
REMARK  117  A    between atoms: _276  and  _277
REMARK  118  A    between atoms: _277  and  _278
REMARK  119  A    between atoms: _278  and  _279
REMARK  120  A    between atoms: _288  and  _290
REMARK  121  A    between atoms: _290  and  _291
REMARK  122  A    between atoms: _290  and  _293
REMARK  123  A    between atoms: _293  and  _294
REMARK  124  A    between atoms: _300  and  _302
REMARK  125  A    between atoms: _302  and  _303
REMARK  126  A    between atoms: _302  and  _305
REMARK  127  A    between atoms: _305  and  _306
REMARK  128  A    between atoms: _309  and  _311
REMARK  129  A    between atoms: _311  and  _312
REMARK  130  A    between atoms: _311  and  _314
REMARK  131  A    between atoms: _314  and  _315
REMARK  132  A    between atoms: _321  and  _323
REMARK  133  A    between atoms: _323  and  _324
REMARK  134  A    between atoms: _323  and  _326
REMARK  135  A    between atoms: _326  and  _327
REMARK  136  A    between atoms: _330  and  _332
REMARK  137  A    between atoms: _332  and  _333
REMARK  138  A    between atoms: _332  and  _335
REMARK  139  A    between atoms: _335  and  _336
REMARK  140  A    between atoms: _339  and  _341
REMARK  141  A    between atoms: _341  and  _342
REMARK  142  A    between atoms: _341  and  _344
REMARK  143  A    between atoms: _344  and  _345
REMARK  144  A    between atoms: _348  and  _350
REMARK  145  A    between atoms: _350  and  _351
REMARK  146  A    between atoms: _350  and  _353
REMARK  147  A    between atoms: _353  and  _354
REMARK  148  A    between atoms: _354  and  _355
REMARK  149  A    between atoms: _355  and  _356
REMARK  150  A    between atoms: _365  and  _367
REMARK  151  A    between atoms: _367  and  _368
REMARK  152  A    between atoms: _367  and  _370
REMARK  153  A    between atoms: _370  and  _371
REMARK  154  A    between atoms: _376  and  _378
REMARK  155  A    between atoms: _378  and  _379
REMARK  156  A    between atoms: _382  and  _384
REMARK  157  A    between atoms: _384  and  _385
REMARK  158  A    between atoms: _384  and  _387
REMARK  159  A    between atoms: _387  and  _388
REMARK  160  A    between atoms: _391  and  _393
REMARK  161  A    between atoms: _393  and  _394
REMARK  162  A    between atoms: _397  and  _399
REMARK  163  A    between atoms: _399  and  _400
REMARK  164  A    between atoms: _399  and  _402
REMARK  165  A    between atoms: _402  and  _403
REMARK  166  A    between atoms: _408  and  _409
REMARK  167  A    between atoms: _411  and  _413
REMARK  168  A    between atoms: _413  and  _414
REMARK  169  A    between atoms: _417  and  _419
REMARK  170  A    between atoms: _419  and  _420
REMARK  171  A    between atoms: _419  and  _422
REMARK  172  A    between atoms: _422  and  _423
REMARK  173  A    between atoms: _426  and  _428
REMARK  174  A    between atoms: _428  and  _429
REMARK  175  A    between atoms: _428  and  _431
REMARK  176  A    between atoms: _431  and  _432
REMARK  177  A    between atoms: _432  and  _433
REMARK  178  A    between atoms: _433  and  _434
REMARK  179  A    between atoms: _434  and  _435
REMARK  180  A    between atoms: _439  and  _441
REMARK  181  A    between atoms: _441  and  _442
REMARK  182  A    between atoms: _441  and  _444
REMARK  183  A    between atoms: _444  and  _445
REMARK  184  A    between atoms: _450  and  _451
REMARK  185  A    between atoms: _453  and  _455
REMARK  186  A    between atoms: _455  and  _456
REMARK  187  A    between atoms: _455  and  _458
REMARK  188  A    between atoms: _458  and  _459
REMARK  189  A    between atoms: _464  and  _466
REMARK  190  A    between atoms: _466  and  _467
REMARK  191  A    between atoms: _469  and  _471
REMARK  192  A    between atoms: _471  and  _472
REMARK  193  A    between atoms: _471  and  _474
REMARK  194  A    between atoms: _474  and  _475
REMARK  195  A    between atoms: _478  and  _480
REMARK  196  A    between atoms: _480  and  _481
REMARK  197  A    between atoms: _480  and  _483
REMARK  198  A    between atoms: _486  and  _488
REMARK  199  A    between atoms: _488  and  _489
REMARK  200  A    between atoms: _488  and  _491
REMARK  201  A    between atoms: _491  and  _492
REMARK  202  A    between atoms: _495  and  _497
REMARK  203  A    between atoms: _497  and  _498
REMARK  204  A    between atoms: _497  and  _500
REMARK  205  A    between atoms: _500  and  _501
REMARK  206  A    between atoms: _507  and  _509
REMARK  207  A    between atoms: _509  and  _510
REMARK  208  A    between atoms: _509  and  _512
REMARK  209  A    between atoms: _512  and  _513
REMARK  210  A    between atoms: _513  and  _514
REMARK  211  A    between atoms: _519  and  _521
REMARK  212  A    between atoms: _521  and  _522
REMARK  213  A    between atoms: _525  and  _527
REMARK  214  A    between atoms: _527  and  _528
REMARK  215  A    between atoms: _531  and  _533
REMARK  216  A    between atoms: _533  and  _534
REMARK  217  A    between atoms: _533  and  _536
REMARK  218  A    between atoms: _536  and  _537
REMARK  219  A    between atoms: _540  and  _542
REMARK  220  A    between atoms: _542  and  _543
REMARK  221  A    between atoms: _542  and  _545
REMARK  222  A    between atoms: _545  and  _546
REMARK  223  A    between atoms: _551  and  _552
REMARK  224  A    between atoms: _554  and  _556
REMARK  225  A    between atoms: _556  and  _557
REMARK  226  A    between atoms: _560  and  _562
REMARK  227  A    between atoms: _562  and  _563
REMARK  228  A    between atoms: _567  and  _568
REMARK  229  A    between atoms: _573  and  _575
REMARK  230  A    between atoms: _575  and  _576
REMARK  231  A    between atoms: _575  and  _578
REMARK  232  A    between atoms: _578  and  _579
REMARK  233  A    between atoms: _585  and  _587
REMARK  234  A    between atoms: _587  and  _588
REMARK  235  A    between atoms: _587  and  _590
REMARK  236  A    between atoms: _590  and  _591
REMARK  237  A    between atoms: _596  and  _597
REMARK  238  A    between atoms: _599  and  _601
REMARK  239  A    between atoms: _601  and  _602
REMARK  240  A    between atoms: _601  and  _604
REMARK  241  A    between atoms: _604  and  _605
REMARK  242  A    between atoms: _605  and  _606
REMARK  243  A    between atoms: _606  and  _607
REMARK  244  A    between atoms: _607  and  _608
REMARK  245  A    between atoms: _612  and  _614
REMARK  246  A    between atoms: _614  and  _615
REMARK  247  A    between atoms: _614  and  _617
REMARK                            x       y       z     vdW  Elec       q    Type
REMARK                         _______ _______ _______ _____ _____    ______ ____
ROOT
ATOM      1  O   HOH     1       2.886 -13.698  25.754  0.00  0.00    +0.000 OA
ENDROOT
TORSDOF 0
REMARK  Name = ../refined-set-2016/2evl/2evl_pocket.pdb
REMARK  247 active torsions:
REMARK  status: ('A' for Active; 'I' for Inactive)
REMARK    1  A    between atoms: _1  and  _3
REMARK    2  A    between atoms: _3  and  _4
REMARK    3  A    between atoms: _3  and  _6
REMARK    4  A    between atoms: _6  and  _7
REMARK    5  A    between atoms: _13  and  _15
REMARK    6  A    between atoms: _15  and  _16
REMARK    7  A    between atoms: _15  and  _18
REMARK    8  A    between atoms: _18  and  _19
REMARK    9  A    between atoms: _22  and  _24
REMARK   10  A    between atoms: _24  and  _25
REMARK   11  A    between atoms: _24  and  _27
REMARK   12  A    between atoms: _30  and  _32
REMARK   13  A    between atoms: _32  and  _33
REMARK   14  A    between atoms: _32  and  _35
REMARK   15  A    between atoms: _35  and  _36
REMARK   16  A    between atoms: _42  and  _44
REMARK   17  A    between atoms: _44  and  _45
REMARK   18  A    between atoms: _44  and  _47
REMARK   19  A    between atoms: _47  and  _48
REMARK   20  A    between atoms: _52  and  _53
REMARK   21  A    between atoms: _58  and  _60
REMARK   22  A    between atoms: _60  and  _61
REMARK   23  A    between atoms: _60  and  _63
REMARK   24  A    between atoms: _63  and  _64
REMARK   25  A    between atoms: _67  and  _69
REMARK   26  A    between atoms: _69  and  _70
REMARK   27  A    between atoms: _69  and  _72
REMARK   28  A    between atoms: _72  and  _73
REMARK   29  A    between atoms: _73  and  _74
REMARK   30  A    between atoms: _74  and  _75
REMARK   31  A    between atoms: _75  and  _76
REMARK   32  A    between atoms: _80  and  _82
REMARK   33  A    between atoms: _82  and  _83
REMARK   34  A    between atoms: _86  and  _88
REMARK   35  A    between atoms: _88  and  _89
REMARK   36  A    between atoms: _88  and  _91
REMARK   37  A    between atoms: _91  and  _92
REMARK   38  A    between atoms: _95  and  _97
REMARK   39  A    between atoms: _97  and  _98
REMARK   40  A    between atoms: _97  and  _100
REMARK   41  A    between atoms: _100  and  _101
REMARK   42  A    between atoms: _104  and  _106
REMARK   43  A    between atoms: _106  and  _107
REMARK   44  A    between atoms: _109  and  _111
REMARK   45  A    between atoms: _111  and  _112
REMARK   46  A    between atoms: _111  and  _114
REMARK   47  A    between atoms: _114  and  _115
REMARK   48  A    between atoms: _120  and  _122
REMARK   49  A    between atoms: _122  and  _123
REMARK   50  A    between atoms: _122  and  _125
REMARK   51  A    between atoms: _125  and  _126
REMARK   52  A    between atoms: _129  and  _131
REMARK   53  A    between atoms: _131  and  _132
REMARK   54  A    between atoms: _131  and  _134
REMARK   55  A    between atoms: _134  and  _135
REMARK   56  A    between atoms: _135  and  _136
REMARK   57  A    between atoms: _136  and  _137
REMARK   58  A    between atoms: _137  and  _138
REMARK   59  A    between atoms: _142  and  _144
REMARK   60  A    between atoms: _144  and  _145
REMARK   61  A    between atoms: _144  and  _147
REMARK   62  A    between atoms: _147  and  _148
REMARK   63  A    between atoms: _151  and  _153
REMARK   64  A    between atoms: _153  and  _154
REMARK   65  A    between atoms: _153  and  _156
REMARK   66  A    between atoms: _156  and  _157
REMARK   67  A    between atoms: _157  and  _158
REMARK   68  A    between atoms: _158  and  _159
REMARK   69  A    between atoms: _159  and  _160
REMARK   70  A    between atoms: _164  and  _166
REMARK   71  A    between atoms: _166  and  _167
REMARK   72  A    between atoms: _169  and  _171
REMARK   73  A    between atoms: _171  and  _172
REMARK   74  A    between atoms: _171  and  _174
REMARK   75  A    between atoms: _174  and  _175
REMARK   76  A    between atoms: _178  and  _180
REMARK   77  A    between atoms: _180  and  _181
REMARK   78  A    between atoms: _184  and  _186
REMARK   79  A    between atoms: _186  and  _187
REMARK   80  A    between atoms: _186  and  _189
REMARK   81  A    between atoms: _189  and  _190
REMARK   82  A    between atoms: _193  and  _195
REMARK   83  A    between atoms: _195  and  _196
REMARK   84  A    between atoms: _195  and  _198
REMARK   85  A    between atoms: _198  and  _199
REMARK   86  A    between atoms: _199  and  _200
REMARK   87  A    between atoms: _202  and  _204
REMARK   88  A    between atoms: _204  and  _205
REMARK   89  A    between atoms: _204  and  _207
REMARK   90  A    between atoms: _207  and  _208
REMARK   91  A    between atoms: _218  and  _220
REMARK   92  A    between atoms: _220  and  _221
REMARK   93  A    between atoms: _220  and  _223
REMARK   94  A    between atoms: _223  and  _224
REMARK   95  A    between atoms: _227  and  _229
REMARK   96  A    between atoms: _229  and  _230
REMARK   97  A    between atoms: _229  and  _232
REMARK   98  A    between atoms: _232  and  _233
REMARK   99  A    between atoms: _233  and  _234
REMARK  100  A    between atoms: _234  and  _235
REMARK  101  A    between atoms: _235  and  _236
REMARK  102  A    between atoms: _240  and  _242
REMARK  103  A    between atoms: _242  and  _243
REMARK  104  A    between atoms: _242  and  _245
REMARK  105  A    between atoms: _245  and  _246
REMARK  106  A    between atoms: _246  and  _247
REMARK  107  A    between atoms: _247  and  _248
REMARK  108  A    between atoms: _257  and  _259
REMARK  109  A    between atoms: _259  and  _260
REMARK  110  A    between atoms: _262  and  _264
REMARK  111  A    between atoms: _264  and  _265
REMARK  112  A    between atoms: _264  and  _267
REMARK  113  A    between atoms: _267  and  _268
REMARK  114  A    between atoms: _271  and  _273
REMARK  115  A    between atoms: _273  and  _274
REMARK  116  A    between atoms: _273  and  _276
REMARK  117  A    between atoms: _276  and  _277
REMARK  118  A    between atoms: _277  and  _278
REMARK  119  A    between atoms: _278  and  _279
REMARK  120  A    between atoms: _288  and  _290
REMARK  121  A    between atoms: _290  and  _291
REMARK  122  A    between atoms: _290  and  _293
REMARK  123  A    between atoms: _293  and  _294
REMARK  124  A    between atoms: _300  and  _302
REMARK  125  A    between atoms: _302  and  _303
REMARK  126  A    between atoms: _302  and  _305
REMARK  127  A    between atoms: _305  and  _306
REMARK  128  A    between atoms: _309  and  _311
REMARK  129  A    between atoms: _311  and  _312
REMARK  130  A    between atoms: _311  and  _314
REMARK  131  A    between atoms: _314  and  _315
REMARK  132  A    between atoms: _321  and  _323
REMARK  133  A    between atoms: _323  and  _324
REMARK  134  A    between atoms: _323  and  _326
REMARK  135  A    between atoms: _326  and  _327
REMARK  136  A    between atoms: _330  and  _332
REMARK  137  A    between atoms: _332  and  _333
REMARK  138  A    between atoms: _332  and  _335
REMARK  139  A    between atoms: _335  and  _336
REMARK  140  A    between atoms: _339  and  _341
REMARK  141  A    between atoms: _341  and  _342
REMARK  142  A    between atoms: _341  and  _344
REMARK  143  A    between atoms: _344  and  _345
REMARK  144  A    between atoms: _348  and  _350
REMARK  145  A    between atoms: _350  and  _351
REMARK  146  A    between atoms: _350  and  _353
REMARK  147  A    between atoms: _353  and  _354
REMARK  148  A    between atoms: _354  and  _355
REMARK  149  A    between atoms: _355  and  _356
REMARK  150  A    between atoms: _365  and  _367
REMARK  151  A    between atoms: _367  and  _368
REMARK  152  A    between atoms: _367  and  _370
REMARK  153  A    between atoms: _370  and  _371
REMARK  154  A    between atoms: _376  and  _378
REMARK  155  A    between atoms: _378  and  _379
REMARK  156  A    between atoms: _382  and  _384
REMARK  157  A    between atoms: _384  and  _385
REMARK  158  A    between atoms: _384  and  _387
REMARK  159  A    between atoms: _387  and  _388
REMARK  160  A    between atoms: _391  and  _393
REMARK  161  A    between atoms: _393  and  _394
REMARK  162  A    between atoms: _397  and  _399
REMARK  163  A    between atoms: _399  and  _400
REMARK  164  A    between atoms: _399  and  _402
REMARK  165  A    between atoms: _402  and  _403
REMARK  166  A    between atoms: _408  and  _409
REMARK  167  A    between atoms: _411  and  _413
REMARK  168  A    between atoms: _413  and  _414
REMARK  169  A    between atoms: _417  and  _419
REMARK  170  A    between atoms: _419  and  _420
REMARK  171  A    between atoms: _419  and  _422
REMARK  172  A    between atoms: _422  and  _423
REMARK  173  A    between atoms: _426  and  _428
REMARK  174  A    between atoms: _428  and  _429
REMARK  175  A    between atoms: _428  and  _431
REMARK  176  A    between atoms: _431  and  _432
REMARK  177  A    between atoms: _432  and  _433
REMARK  178  A    between atoms: _433  and  _434
REMARK  179  A    between atoms: _434  and  _435
REMARK  180  A    between atoms: _439  and  _441
REMARK  181  A    between atoms: _441  and  _442
REMARK  182  A    between atoms: _441  and  _444
REMARK  183  A    between atoms: _444  and  _445
REMARK  184  A    between atoms: _450  and  _451
REMARK  185  A    between atoms: _453  and  _455
REMARK  186  A    between atoms: _455  and  _456
REMARK  187  A    between atoms: _455  and  _458
REMARK  188  A    between atoms: _458  and  _459
REMARK  189  A    between atoms: _464  and  _466
REMARK  190  A    between atoms: _466  and  _467
REMARK  191  A    between atoms: _469  and  _471
REMARK  192  A    between atoms: _471  and  _472
REMARK  193  A    between atoms: _471  and  _474
REMARK  194  A    between atoms: _474  and  _475
REMARK  195  A    between atoms: _478  and  _480
REMARK  196  A    between atoms: _480  and  _481
REMARK  197  A    between atoms: _480  and  _483
REMARK  198  A    between atoms: _486  and  _488
REMARK  199  A    between atoms: _488  and  _489
REMARK  200  A    between atoms: _488  and  _491
REMARK  201  A    between atoms: _491  and  _492
REMARK  202  A    between atoms: _495  and  _497
REMARK  203  A    between atoms: _497  and  _498
REMARK  204  A    between atoms: _497  and  _500
REMARK  205  A    between atoms: _500  and  _501
REMARK  206  A    between atoms: _507  and  _509
REMARK  207  A    between atoms: _509  and  _510
REMARK  208  A    between atoms: _509  and  _512
REMARK  209  A    between atoms: _512  and  _513
REMARK  210  A    between atoms: _513  and  _514
REMARK  211  A    between atoms: _519  and  _521
REMARK  212  A    between atoms: _521  and  _522
REMARK  213  A    between atoms: _525  and  _527
REMARK  214  A    between atoms: _527  and  _528
REMARK  215  A    between atoms: _531  and  _533
REMARK  216  A    between atoms: _533  and  _534
REMARK  217  A    between atoms: _533  and  _536
REMARK  218  A    between atoms: _536  and  _537
REMARK  219  A    between atoms: _540  and  _542
REMARK  220  A    between atoms: _542  and  _543
REMARK  221  A    between atoms: _542  and  _545
REMARK  222  A    between atoms: _545  and  _546
REMARK  223  A    between atoms: _551  and  _552
REMARK  224  A    between atoms: _554  and  _556
REMARK  225  A    between atoms: _556  and  _557
REMARK  226  A    between atoms: _560  and  _562
REMARK  227  A    between atoms: _562  and  _563
REMARK  228  A    between atoms: _567  and  _568
REMARK  229  A    between atoms: _573  and  _575
REMARK  230  A    between atoms: _575  and  _576
REMARK  231  A    between atoms: _575  and  _578
REMARK  232  A    between atoms: _578  and  _579
REMARK  233  A    between atoms: _585  and  _587
REMARK  234  A    between atoms: _587  and  _588
REMARK  235  A    between atoms: _587  and  _590
REMARK  236  A    between atoms: _590  and  _591
REMARK  237  A    between atoms: _596  and  _597
REMARK  238  A    between atoms: _599  and  _601
REMARK  239  A    between atoms: _601  and  _602
REMARK  240  A    between atoms: _601  and  _604
REMARK  241  A    between atoms: _604  and  _605
REMARK  242  A    between atoms: _605  and  _606
REMARK  243  A    between atoms: _606  and  _607
REMARK  244  A    between atoms: _607  and  _608
REMARK  245  A    between atoms: _612  and  _614
REMARK  246  A    between atoms: _614  and  _615
REMARK  247  A    between atoms: _614  and  _617
REMARK                            x       y       z     vdW  Elec       q    Type
REMARK                         _______ _______ _______ _____ _____    ______ ____
ROOT
ATOM      1  O   HOH     1      29.320  -5.736  19.810  0.00  0.00    +0.000 OA
ENDROOT
TORSDOF 0
REMARK  Name = ../refined-set-2016/2evl/2evl_pocket.pdb
REMARK  247 active torsions:
REMARK  status: ('A' for Active; 'I' for Inactive)
REMARK    1  A    between atoms: _1  and  _3
REMARK    2  A    between atoms: _3  and  _4
REMARK    3  A    between atoms: _3  and  _6
REMARK    4  A    between atoms: _6  and  _7
REMARK    5  A    between atoms: _13  and  _15
REMARK    6  A    between atoms: _15  and  _16
REMARK    7  A    between atoms: _15  and  _18
REMARK    8  A    between atoms: _18  and  _19
REMARK    9  A    between atoms: _22  and  _24
REMARK   10  A    between atoms: _24  and  _25
REMARK   11  A    between atoms: _24  and  _27
REMARK   12  A    between atoms: _30  and  _32
REMARK   13  A    between atoms: _32  and  _33
REMARK   14  A    between atoms: _32  and  _35
REMARK   15  A    between atoms: _35  and  _36
REMARK   16  A    between atoms: _42  and  _44
REMARK   17  A    between atoms: _44  and  _45
REMARK   18  A    between atoms: _44  and  _47
REMARK   19  A    between atoms: _47  and  _48
REMARK   20  A    between atoms: _52  and  _53
REMARK   21  A    between atoms: _58  and  _60
REMARK   22  A    between atoms: _60  and  _61
REMARK   23  A    between atoms: _60  and  _63
REMARK   24  A    between atoms: _63  and  _64
REMARK   25  A    between atoms: _67  and  _69
REMARK   26  A    between atoms: _69  and  _70
REMARK   27  A    between atoms: _69  and  _72
REMARK   28  A    between atoms: _72  and  _73
REMARK   29  A    between atoms: _73  and  _74
REMARK   30  A    between atoms: _74  and  _75
REMARK   31  A    between atoms: _75  and  _76
REMARK   32  A    between atoms: _80  and  _82
REMARK   33  A    between atoms: _82  and  _83
REMARK   34  A    between atoms: _86  and  _88
REMARK   35  A    between atoms: _88  and  _89
REMARK   36  A    between atoms: _88  and  _91
REMARK   37  A    between atoms: _91  and  _92
REMARK   38  A    between atoms: _95  and  _97
REMARK   39  A    between atoms: _97  and  _98
REMARK   40  A    between atoms: _97  and  _100
REMARK   41  A    between atoms: _100  and  _101
REMARK   42  A    between atoms: _104  and  _106
REMARK   43  A    between atoms: _106  and  _107
REMARK   44  A    between atoms: _109  and  _111
REMARK   45  A    between atoms: _111  and  _112
REMARK   46  A    between atoms: _111  and  _114
REMARK   47  A    between atoms: _114  and  _115
REMARK   48  A    between atoms: _120  and  _122
REMARK   49  A    between atoms: _122  and  _123
REMARK   50  A    between atoms: _122  and  _125
REMARK   51  A    between atoms: _125  and  _126
REMARK   52  A    between atoms: _129  and  _131
REMARK   53  A    between atoms: _131  and  _132
REMARK   54  A    between atoms: _131  and  _134
REMARK   55  A    between atoms: _134  and  _135
REMARK   56  A    between atoms: _135  and  _136
REMARK   57  A    between atoms: _136  and  _137
REMARK   58  A    between atoms: _137  and  _138
REMARK   59  A    between atoms: _142  and  _144
REMARK   60  A    between atoms: _144  and  _145
REMARK   61  A    between atoms: _144  and  _147
REMARK   62  A    between atoms: _147  and  _148
REMARK   63  A    between atoms: _151  and  _153
REMARK   64  A    between atoms: _153  and  _154
REMARK   65  A    between atoms: _153  and  _156
REMARK   66  A    between atoms: _156  and  _157
REMARK   67  A    between atoms: _157  and  _158
REMARK   68  A    between atoms: _158  and  _159
REMARK   69  A    between atoms: _159  and  _160
REMARK   70  A    between atoms: _164  and  _166
REMARK   71  A    between atoms: _166  and  _167
REMARK   72  A    between atoms: _169  and  _171
REMARK   73  A    between atoms: _171  and  _172
REMARK   74  A    between atoms: _171  and  _174
REMARK   75  A    between atoms: _174  and  _175
REMARK   76  A    between atoms: _178  and  _180
REMARK   77  A    between atoms: _180  and  _181
REMARK   78  A    between atoms: _184  and  _186
REMARK   79  A    between atoms: _186  and  _187
REMARK   80  A    between atoms: _186  and  _189
REMARK   81  A    between atoms: _189  and  _190
REMARK   82  A    between atoms: _193  and  _195
REMARK   83  A    between atoms: _195  and  _196
REMARK   84  A    between atoms: _195  and  _198
REMARK   85  A    between atoms: _198  and  _199
REMARK   86  A    between atoms: _199  and  _200
REMARK   87  A    between atoms: _202  and  _204
REMARK   88  A    between atoms: _204  and  _205
REMARK   89  A    between atoms: _204  and  _207
REMARK   90  A    between atoms: _207  and  _208
REMARK   91  A    between atoms: _218  and  _220
REMARK   92  A    between atoms: _220  and  _221
REMARK   93  A    between atoms: _220  and  _223
REMARK   94  A    between atoms: _223  and  _224
REMARK   95  A    between atoms: _227  and  _229
REMARK   96  A    between atoms: _229  and  _230
REMARK   97  A    between atoms: _229  and  _232
REMARK   98  A    between atoms: _232  and  _233
REMARK   99  A    between atoms: _233  and  _234
REMARK  100  A    between atoms: _234  and  _235
REMARK  101  A    between atoms: _235  and  _236
REMARK  102  A    between atoms: _240  and  _242
REMARK  103  A    between atoms: _242  and  _243
REMARK  104  A    between atoms: _242  and  _245
REMARK  105  A    between atoms: _245  and  _246
REMARK  106  A    between atoms: _246  and  _247
REMARK  107  A    between atoms: _247  and  _248
REMARK  108  A    between atoms: _257  and  _259
REMARK  109  A    between atoms: _259  and  _260
REMARK  110  A    between atoms: _262  and  _264
REMARK  111  A    between atoms: _264  and  _265
REMARK  112  A    between atoms: _264  and  _267
REMARK  113  A    between atoms: _267  and  _268
REMARK  114  A    between atoms: _271  and  _273
REMARK  115  A    between atoms: _273  and  _274
REMARK  116  A    between atoms: _273  and  _276
REMARK  117  A    between atoms: _276  and  _277
REMARK  118  A    between atoms: _277  and  _278
REMARK  119  A    between atoms: _278  and  _279
REMARK  120  A    between atoms: _288  and  _290
REMARK  121  A    between atoms: _290  and  _291
REMARK  122  A    between atoms: _290  and  _293
REMARK  123  A    between atoms: _293  and  _294
REMARK  124  A    between atoms: _300  and  _302
REMARK  125  A    between atoms: _302  and  _303
REMARK  126  A    between atoms: _302  and  _305
REMARK  127  A    between atoms: _305  and  _306
REMARK  128  A    between atoms: _309  and  _311
REMARK  129  A    between atoms: _311  and  _312
REMARK  130  A    between atoms: _311  and  _314
REMARK  131  A    between atoms: _314  and  _315
REMARK  132  A    between atoms: _321  and  _323
REMARK  133  A    between atoms: _323  and  _324
REMARK  134  A    between atoms: _323  and  _326
REMARK  135  A    between atoms: _326  and  _327
REMARK  136  A    between atoms: _330  and  _332
REMARK  137  A    between atoms: _332  and  _333
REMARK  138  A    between atoms: _332  and  _335
REMARK  139  A    between atoms: _335  and  _336
REMARK  140  A    between atoms: _339  and  _341
REMARK  141  A    between atoms: _341  and  _342
REMARK  142  A    between atoms: _341  and  _344
REMARK  143  A    between atoms: _344  and  _345
REMARK  144  A    between atoms: _348  and  _350
REMARK  145  A    between atoms: _350  and  _351
REMARK  146  A    between atoms: _350  and  _353
REMARK  147  A    between atoms: _353  and  _354
REMARK  148  A    between atoms: _354  and  _355
REMARK  149  A    between atoms: _355  and  _356
REMARK  150  A    between atoms: _365  and  _367
REMARK  151  A    between atoms: _367  and  _368
REMARK  152  A    between atoms: _367  and  _370
REMARK  153  A    between atoms: _370  and  _371
REMARK  154  A    between atoms: _376  and  _378
REMARK  155  A    between atoms: _378  and  _379
REMARK  156  A    between atoms: _382  and  _384
REMARK  157  A    between atoms: _384  and  _385
REMARK  158  A    between atoms: _384  and  _387
REMARK  159  A    between atoms: _387  and  _388
REMARK  160  A    between atoms: _391  and  _393
REMARK  161  A    between atoms: _393  and  _394
REMARK  162  A    between atoms: _397  and  _399
REMARK  163  A    between atoms: _399  and  _400
REMARK  164  A    between atoms: _399  and  _402
REMARK  165  A    between atoms: _402  and  _403
REMARK  166  A    between atoms: _408  and  _409
REMARK  167  A    between atoms: _411  and  _413
REMARK  168  A    between atoms: _413  and  _414
REMARK  169  A    between atoms: _417  and  _419
REMARK  170  A    between atoms: _419  and  _420
REMARK  171  A    between atoms: _419  and  _422
REMARK  172  A    between atoms: _422  and  _423
REMARK  173  A    between atoms: _426  and  _428
REMARK  174  A    between atoms: _428  and  _429
REMARK  175  A    between atoms: _428  and  _431
REMARK  176  A    between atoms: _431  and  _432
REMARK  177  A    between atoms: _432  and  _433
REMARK  178  A    between atoms: _433  and  _434
REMARK  179  A    between atoms: _434  and  _435
REMARK  180  A    between atoms: _439  and  _441
REMARK  181  A    between atoms: _441  and  _442
REMARK  182  A    between atoms: _441  and  _444
REMARK  183  A    between atoms: _444  and  _445
REMARK  184  A    between atoms: _450  and  _451
REMARK  185  A    between atoms: _453  and  _455
REMARK  186  A    between atoms: _455  and  _456
REMARK  187  A    between atoms: _455  and  _458
REMARK  188  A    between atoms: _458  and  _459
REMARK  189  A    between atoms: _464  and  _466
REMARK  190  A    between atoms: _466  and  _467
REMARK  191  A    between atoms: _469  and  _471
REMARK  192  A    between atoms: _471  and  _472
REMARK  193  A    between atoms: _471  and  _474
REMARK  194  A    between atoms: _474  and  _475
REMARK  195  A    between atoms: _478  and  _480
REMARK  196  A    between atoms: _480  and  _481
REMARK  197  A    between atoms: _480  and  _483
REMARK  198  A    between atoms: _486  and  _488
REMARK  199  A    between atoms: _488  and  _489
REMARK  200  A    between atoms: _488  and  _491
REMARK  201  A    between atoms: _491  and  _492
REMARK  202  A    between atoms: _495  and  _497
REMARK  203  A    between atoms: _497  and  _498
REMARK  204  A    between atoms: _497  and  _500
REMARK  205  A    between atoms: _500  and  _501
REMARK  206  A    between atoms: _507  and  _509
REMARK  207  A    between atoms: _509  and  _510
REMARK  208  A    between atoms: _509  and  _512
REMARK  209  A    between atoms: _512  and  _513
REMARK  210  A    between atoms: _513  and  _514
REMARK  211  A    between atoms: _519  and  _521
REMARK  212  A    between atoms: _521  and  _522
REMARK  213  A    between atoms: _525  and  _527
REMARK  214  A    between atoms: _527  and  _528
REMARK  215  A    between atoms: _531  and  _533
REMARK  216  A    between atoms: _533  and  _534
REMARK  217  A    between atoms: _533  and  _536
REMARK  218  A    between atoms: _536  and  _537
REMARK  219  A    between atoms: _540  and  _542
REMARK  220  A    between atoms: _542  and  _543
REMARK  221  A    between atoms: _542  and  _545
REMARK  222  A    between atoms: _545  and  _546
REMARK  223  A    between atoms: _551  and  _552
REMARK  224  A    between atoms: _554  and  _556
REMARK  225  A    between atoms: _556  and  _557
REMARK  226  A    between atoms: _560  and  _562
REMARK  227  A    between atoms: _562  and  _563
REMARK  228  A    between atoms: _567  and  _568
REMARK  229  A    between atoms: _573  and  _575
REMARK  230  A    between atoms: _575  and  _576
REMARK  231  A    between atoms: _575  and  _578
REMARK  232  A    between atoms: _578  and  _579
REMARK  233  A    between atoms: _585  and  _587
REMARK  234  A    between atoms: _587  and  _588
REMARK  235  A    between atoms: _587  and  _590
REMARK  236  A    between atoms: _590  and  _591
REMARK  237  A    between atoms: _596  and  _597
REMARK  238  A    between atoms: _599  and  _601
REMARK  239  A    between atoms: _601  and  _602
REMARK  240  A    between atoms: _601  and  _604
REMARK  241  A    between atoms: _604  and  _605
REMARK  242  A    between atoms: _605  and  _606
REMARK  243  A    between atoms: _606  and  _607
REMARK  244  A    between atoms: _607  and  _608
REMARK  245  A    between atoms: _612  and  _614
REMARK  246  A    between atoms: _614  and  _615
REMARK  247  A    between atoms: _614  and  _617
REMARK                            x       y       z     vdW  Elec       q    Type
REMARK                         _______ _______ _______ _____ _____    ______ ____
ROOT
ATOM      1  O   HOH     1      24.194   2.039  21.647  0.00  0.00    +0.000 OA
ENDROOT
TORSDOF 0
REMARK  Name = ../refined-set-2016/2evl/2evl_pocket.pdb
REMARK  247 active torsions:
REMARK  status: ('A' for Active; 'I' for Inactive)
REMARK    1  A    between atoms: _1  and  _3
REMARK    2  A    between atoms: _3  and  _4
REMARK    3  A    between atoms: _3  and  _6
REMARK    4  A    between atoms: _6  and  _7
REMARK    5  A    between atoms: _13  and  _15
REMARK    6  A    between atoms: _15  and  _16
REMARK    7  A    between atoms: _15  and  _18
REMARK    8  A    between atoms: _18  and  _19
REMARK    9  A    between atoms: _22  and  _24
REMARK   10  A    between atoms: _24  and  _25
REMARK   11  A    between atoms: _24  and  _27
REMARK   12  A    between atoms: _30  and  _32
REMARK   13  A    between atoms: _32  and  _33
REMARK   14  A    between atoms: _32  and  _35
REMARK   15  A    between atoms: _35  and  _36
REMARK   16  A    between atoms: _42  and  _44
REMARK   17  A    between atoms: _44  and  _45
REMARK   18  A    between atoms: _44  and  _47
REMARK   19  A    between atoms: _47  and  _48
REMARK   20  A    between atoms: _52  and  _53
REMARK   21  A    between atoms: _58  and  _60
REMARK   22  A    between atoms: _60  and  _61
REMARK   23  A    between atoms: _60  and  _63
REMARK   24  A    between atoms: _63  and  _64
REMARK   25  A    between atoms: _67  and  _69
REMARK   26  A    between atoms: _69  and  _70
REMARK   27  A    between atoms: _69  and  _72
REMARK   28  A    between atoms: _72  and  _73
REMARK   29  A    between atoms: _73  and  _74
REMARK   30  A    between atoms: _74  and  _75
REMARK   31  A    between atoms: _75  and  _76
REMARK   32  A    between atoms: _80  and  _82
REMARK   33  A    between atoms: _82  and  _83
REMARK   34  A    between atoms: _86  and  _88
REMARK   35  A    between atoms: _88  and  _89
REMARK   36  A    between atoms: _88  and  _91
REMARK   37  A    between atoms: _91  and  _92
REMARK   38  A    between atoms: _95  and  _97
REMARK   39  A    between atoms: _97  and  _98
REMARK   40  A    between atoms: _97  and  _100
REMARK   41  A    between atoms: _100  and  _101
REMARK   42  A    between atoms: _104  and  _106
REMARK   43  A    between atoms: _106  and  _107
REMARK   44  A    between atoms: _109  and  _111
REMARK   45  A    between atoms: _111  and  _112
REMARK   46  A    between atoms: _111  and  _114
REMARK   47  A    between atoms: _114  and  _115
REMARK   48  A    between atoms: _120  and  _122
REMARK   49  A    between atoms: _122  and  _123
REMARK   50  A    between atoms: _122  and  _125
REMARK   51  A    between atoms: _125  and  _126
REMARK   52  A    between atoms: _129  and  _131
REMARK   53  A    between atoms: _131  and  _132
REMARK   54  A    between atoms: _131  and  _134
REMARK   55  A    between atoms: _134  and  _135
REMARK   56  A    between atoms: _135  and  _136
REMARK   57  A    between atoms: _136  and  _137
REMARK   58  A    between atoms: _137  and  _138
REMARK   59  A    between atoms: _142  and  _144
REMARK   60  A    between atoms: _144  and  _145
REMARK   61  A    between atoms: _144  and  _147
REMARK   62  A    between atoms: _147  and  _148
REMARK   63  A    between atoms: _151  and  _153
REMARK   64  A    between atoms: _153  and  _154
REMARK   65  A    between atoms: _153  and  _156
REMARK   66  A    between atoms: _156  and  _157
REMARK   67  A    between atoms: _157  and  _158
REMARK   68  A    between atoms: _158  and  _159
REMARK   69  A    between atoms: _159  and  _160
REMARK   70  A    between atoms: _164  and  _166
REMARK   71  A    between atoms: _166  and  _167
REMARK   72  A    between atoms: _169  and  _171
REMARK   73  A    between atoms: _171  and  _172
REMARK   74  A    between atoms: _171  and  _174
REMARK   75  A    between atoms: _174  and  _175
REMARK   76  A    between atoms: _178  and  _180
REMARK   77  A    between atoms: _180  and  _181
REMARK   78  A    between atoms: _184  and  _186
REMARK   79  A    between atoms: _186  and  _187
REMARK   80  A    between atoms: _186  and  _189
REMARK   81  A    between atoms: _189  and  _190
REMARK   82  A    between atoms: _193  and  _195
REMARK   83  A    between atoms: _195  and  _196
REMARK   84  A    between atoms: _195  and  _198
REMARK   85  A    between atoms: _198  and  _199
REMARK   86  A    between atoms: _199  and  _200
REMARK   87  A    between atoms: _202  and  _204
REMARK   88  A    between atoms: _204  and  _205
REMARK   89  A    between atoms: _204  and  _207
REMARK   90  A    between atoms: _207  and  _208
REMARK   91  A    between atoms: _218  and  _220
REMARK   92  A    between atoms: _220  and  _221
REMARK   93  A    between atoms: _220  and  _223
REMARK   94  A    between atoms: _223  and  _224
REMARK   95  A    between atoms: _227  and  _229
REMARK   96  A    between atoms: _229  and  _230
REMARK   97  A    between atoms: _229  and  _232
REMARK   98  A    between atoms: _232  and  _233
REMARK   99  A    between atoms: _233  and  _234
REMARK  100  A    between atoms: _234  and  _235
REMARK  101  A    between atoms: _235  and  _236
REMARK  102  A    between atoms: _240  and  _242
REMARK  103  A    between atoms: _242  and  _243
REMARK  104  A    between atoms: _242  and  _245
REMARK  105  A    between atoms: _245  and  _246
REMARK  106  A    between atoms: _246  and  _247
REMARK  107  A    between atoms: _247  and  _248
REMARK  108  A    between atoms: _257  and  _259
REMARK  109  A    between atoms: _259  and  _260
REMARK  110  A    between atoms: _262  and  _264
REMARK  111  A    between atoms: _264  and  _265
REMARK  112  A    between atoms: _264  and  _267
REMARK  113  A    between atoms: _267  and  _268
REMARK  114  A    between atoms: _271  and  _273
REMARK  115  A    between atoms: _273  and  _274
REMARK  116  A    between atoms: _273  and  _276
REMARK  117  A    between atoms: _276  and  _277
REMARK  118  A    between atoms: _277  and  _278
REMARK  119  A    between atoms: _278  and  _279
REMARK  120  A    between atoms: _288  and  _290
REMARK  121  A    between atoms: _290  and  _291
REMARK  122  A    between atoms: _290  and  _293
REMARK  123  A    between atoms: _293  and  _294
REMARK  124  A    between atoms: _300  and  _302
REMARK  125  A    between atoms: _302  and  _303
REMARK  126  A    between atoms: _302  and  _305
REMARK  127  A    between atoms: _305  and  _306
REMARK  128  A    between atoms: _309  and  _311
REMARK  129  A    between atoms: _311  and  _312
REMARK  130  A    between atoms: _311  and  _314
REMARK  131  A    between atoms: _314  and  _315
REMARK  132  A    between atoms: _321  and  _323
REMARK  133  A    between atoms: _323  and  _324
REMARK  134  A    between atoms: _323  and  _326
REMARK  135  A    between atoms: _326  and  _327
REMARK  136  A    between atoms: _330  and  _332
REMARK  137  A    between atoms: _332  and  _333
REMARK  138  A    between atoms: _332  and  _335
REMARK  139  A    between atoms: _335  and  _336
REMARK  140  A    between atoms: _339  and  _341
REMARK  141  A    between atoms: _341  and  _342
REMARK  142  A    between atoms: _341  and  _344
REMARK  143  A    between atoms: _344  and  _345
REMARK  144  A    between atoms: _348  and  _350
REMARK  145  A    between atoms: _350  and  _351
REMARK  146  A    between atoms: _350  and  _353
REMARK  147  A    between atoms: _353  and  _354
REMARK  148  A    between atoms: _354  and  _355
REMARK  149  A    between atoms: _355  and  _356
REMARK  150  A    between atoms: _365  and  _367
REMARK  151  A    between atoms: _367  and  _368
REMARK  152  A    between atoms: _367  and  _370
REMARK  153  A    between atoms: _370  and  _371
REMARK  154  A    between atoms: _376  and  _378
REMARK  155  A    between atoms: _378  and  _379
REMARK  156  A    between atoms: _382  and  _384
REMARK  157  A    between atoms: _384  and  _385
REMARK  158  A    between atoms: _384  and  _387
REMARK  159  A    between atoms: _387  and  _388
REMARK  160  A    between atoms: _391  and  _393
REMARK  161  A    between atoms: _393  and  _394
REMARK  162  A    between atoms: _397  and  _399
REMARK  163  A    between atoms: _399  and  _400
REMARK  164  A    between atoms: _399  and  _402
REMARK  165  A    between atoms: _402  and  _403
REMARK  166  A    between atoms: _408  and  _409
REMARK  167  A    between atoms: _411  and  _413
REMARK  168  A    between atoms: _413  and  _414
REMARK  169  A    between atoms: _417  and  _419
REMARK  170  A    between atoms: _419  and  _420
REMARK  171  A    between atoms: _419  and  _422
REMARK  172  A    between atoms: _422  and  _423
REMARK  173  A    between atoms: _426  and  _428
REMARK  174  A    between atoms: _428  and  _429
REMARK  175  A    between atoms: _428  and  _431
REMARK  176  A    between atoms: _431  and  _432
REMARK  177  A    between atoms: _432  and  _433
REMARK  178  A    between atoms: _433  and  _434
REMARK  179  A    between atoms: _434  and  _435
REMARK  180  A    between atoms: _439  and  _441
REMARK  181  A    between atoms: _441  and  _442
REMARK  182  A    between atoms: _441  and  _444
REMARK  183  A    between atoms: _444  and  _445
REMARK  184  A    between atoms: _450  and  _451
REMARK  185  A    between atoms: _453  and  _455
REMARK  186  A    between atoms: _455  and  _456
REMARK  187  A    between atoms: _455  and  _458
REMARK  188  A    between atoms: _458  and  _459
REMARK  189  A    between atoms: _464  and  _466
REMARK  190  A    between atoms: _466  and  _467
REMARK  191  A    between atoms: _469  and  _471
REMARK  192  A    between atoms: _471  and  _472
REMARK  193  A    between atoms: _471  and  _474
REMARK  194  A    between atoms: _474  and  _475
REMARK  195  A    between atoms: _478  and  _480
REMARK  196  A    between atoms: _480  and  _481
REMARK  197  A    between atoms: _480  and  _483
REMARK  198  A    between atoms: _486  and  _488
REMARK  199  A    between atoms: _488  and  _489
REMARK  200  A    between atoms: _488  and  _491
REMARK  201  A    between atoms: _491  and  _492
REMARK  202  A    between atoms: _495  and  _497
REMARK  203  A    between atoms: _497  and  _498
REMARK  204  A    between atoms: _497  and  _500
REMARK  205  A    between atoms: _500  and  _501
REMARK  206  A    between atoms: _507  and  _509
REMARK  207  A    between atoms: _509  and  _510
REMARK  208  A    between atoms: _509  and  _512
REMARK  209  A    between atoms: _512  and  _513
REMARK  210  A    between atoms: _513  and  _514
REMARK  211  A    between atoms: _519  and  _521
REMARK  212  A    between atoms: _521  and  _522
REMARK  213  A    between atoms: _525  and  _527
REMARK  214  A    between atoms: _527  and  _528
REMARK  215  A    between atoms: _531  and  _533
REMARK  216  A    between atoms: _533  and  _534
REMARK  217  A    between atoms: _533  and  _536
REMARK  218  A    between atoms: _536  and  _537
REMARK  219  A    between atoms: _540  and  _542
REMARK  220  A    between atoms: _542  and  _543
REMARK  221  A    between atoms: _542  and  _545
REMARK  222  A    between atoms: _545  and  _546
REMARK  223  A    between atoms: _551  and  _552
REMARK  224  A    between atoms: _554  and  _556
REMARK  225  A    between atoms: _556  and  _557
REMARK  226  A    between atoms: _560  and  _562
REMARK  227  A    between atoms: _562  and  _563
REMARK  228  A    between atoms: _567  and  _568
REMARK  229  A    between atoms: _573  and  _575
REMARK  230  A    between atoms: _575  and  _576
REMARK  231  A    between atoms: _575  and  _578
REMARK  232  A    between atoms: _578  and  _579
REMARK  233  A    between atoms: _585  and  _587
REMARK  234  A    between atoms: _587  and  _588
REMARK  235  A    between atoms: _587  and  _590
REMARK  236  A    between atoms: _590  and  _591
REMARK  237  A    between atoms: _596  and  _597
REMARK  238  A    between atoms: _599  and  _601
REMARK  239  A    between atoms: _601  and  _602
REMARK  240  A    between atoms: _601  and  _604
REMARK  241  A    between atoms: _604  and  _605
REMARK  242  A    between atoms: _605  and  _606
REMARK  243  A    between atoms: _606  and  _607
REMARK  244  A    between atoms: _607  and  _608
REMARK  245  A    between atoms: _612  and  _614
REMARK  246  A    between atoms: _614  and  _615
REMARK  247  A    between atoms: _614  and  _617
REMARK                            x       y       z     vdW  Elec       q    Type
REMARK                         _______ _______ _______ _____ _____    ______ ____
ROOT
ATOM      1  O   HOH     1      21.143   7.296  23.903  0.00  0.00    +0.000 OA
ENDROOT
TORSDOF 0
REMARK  Name = ../refined-set-2016/2evl/2evl_pocket.pdb
REMARK  247 active torsions:
REMARK  status: ('A' for Active; 'I' for Inactive)
REMARK    1  A    between atoms: _1  and  _3
REMARK    2  A    between atoms: _3  and  _4
REMARK    3  A    between atoms: _3  and  _6
REMARK    4  A    between atoms: _6  and  _7
REMARK    5  A    between atoms: _13  and  _15
REMARK    6  A    between atoms: _15  and  _16
REMARK    7  A    between atoms: _15  and  _18
REMARK    8  A    between atoms: _18  and  _19
REMARK    9  A    between atoms: _22  and  _24
REMARK   10  A    between atoms: _24  and  _25
REMARK   11  A    between atoms: _24  and  _27
REMARK   12  A    between atoms: _30  and  _32
REMARK   13  A    between atoms: _32  and  _33
REMARK   14  A    between atoms: _32  and  _35
REMARK   15  A    between atoms: _35  and  _36
REMARK   16  A    between atoms: _42  and  _44
REMARK   17  A    between atoms: _44  and  _45
REMARK   18  A    between atoms: _44  and  _47
REMARK   19  A    between atoms: _47  and  _48
REMARK   20  A    between atoms: _52  and  _53
REMARK   21  A    between atoms: _58  and  _60
REMARK   22  A    between atoms: _60  and  _61
REMARK   23  A    between atoms: _60  and  _63
REMARK   24  A    between atoms: _63  and  _64
REMARK   25  A    between atoms: _67  and  _69
REMARK   26  A    between atoms: _69  and  _70
REMARK   27  A    between atoms: _69  and  _72
REMARK   28  A    between atoms: _72  and  _73
REMARK   29  A    between atoms: _73  and  _74
REMARK   30  A    between atoms: _74  and  _75
REMARK   31  A    between atoms: _75  and  _76
REMARK   32  A    between atoms: _80  and  _82
REMARK   33  A    between atoms: _82  and  _83
REMARK   34  A    between atoms: _86  and  _88
REMARK   35  A    between atoms: _88  and  _89
REMARK   36  A    between atoms: _88  and  _91
REMARK   37  A    between atoms: _91  and  _92
REMARK   38  A    between atoms: _95  and  _97
REMARK   39  A    between atoms: _97  and  _98
REMARK   40  A    between atoms: _97  and  _100
REMARK   41  A    between atoms: _100  and  _101
REMARK   42  A    between atoms: _104  and  _106
REMARK   43  A    between atoms: _106  and  _107
REMARK   44  A    between atoms: _109  and  _111
REMARK   45  A    between atoms: _111  and  _112
REMARK   46  A    between atoms: _111  and  _114
REMARK   47  A    between atoms: _114  and  _115
REMARK   48  A    between atoms: _120  and  _122
REMARK   49  A    between atoms: _122  and  _123
REMARK   50  A    between atoms: _122  and  _125
REMARK   51  A    between atoms: _125  and  _126
REMARK   52  A    between atoms: _129  and  _131
REMARK   53  A    between atoms: _131  and  _132
REMARK   54  A    between atoms: _131  and  _134
REMARK   55  A    between atoms: _134  and  _135
REMARK   56  A    between atoms: _135  and  _136
REMARK   57  A    between atoms: _136  and  _137
REMARK   58  A    between atoms: _137  and  _138
REMARK   59  A    between atoms: _142  and  _144
REMARK   60  A    between atoms: _144  and  _145
REMARK   61  A    between atoms: _144  and  _147
REMARK   62  A    between atoms: _147  and  _148
REMARK   63  A    between atoms: _151  and  _153
REMARK   64  A    between atoms: _153  and  _154
REMARK   65  A    between atoms: _153  and  _156
REMARK   66  A    between atoms: _156  and  _157
REMARK   67  A    between atoms: _157  and  _158
REMARK   68  A    between atoms: _158  and  _159
REMARK   69  A    between atoms: _159  and  _160
REMARK   70  A    between atoms: _164  and  _166
REMARK   71  A    between atoms: _166  and  _167
REMARK   72  A    between atoms: _169  and  _171
REMARK   73  A    between atoms: _171  and  _172
REMARK   74  A    between atoms: _171  and  _174
REMARK   75  A    between atoms: _174  and  _175
REMARK   76  A    between atoms: _178  and  _180
REMARK   77  A    between atoms: _180  and  _181
REMARK   78  A    between atoms: _184  and  _186
REMARK   79  A    between atoms: _186  and  _187
REMARK   80  A    between atoms: _186  and  _189
REMARK   81  A    between atoms: _189  and  _190
REMARK   82  A    between atoms: _193  and  _195
REMARK   83  A    between atoms: _195  and  _196
REMARK   84  A    between atoms: _195  and  _198
REMARK   85  A    between atoms: _198  and  _199
REMARK   86  A    between atoms: _199  and  _200
REMARK   87  A    between atoms: _202  and  _204
REMARK   88  A    between atoms: _204  and  _205
REMARK   89  A    between atoms: _204  and  _207
REMARK   90  A    between atoms: _207  and  _208
REMARK   91  A    between atoms: _218  and  _220
REMARK   92  A    between atoms: _220  and  _221
REMARK   93  A    between atoms: _220  and  _223
REMARK   94  A    between atoms: _223  and  _224
REMARK   95  A    between atoms: _227  and  _229
REMARK   96  A    between atoms: _229  and  _230
REMARK   97  A    between atoms: _229  and  _232
REMARK   98  A    between atoms: _232  and  _233
REMARK   99  A    between atoms: _233  and  _234
REMARK  100  A    between atoms: _234  and  _235
REMARK  101  A    between atoms: _235  and  _236
REMARK  102  A    between atoms: _240  and  _242
REMARK  103  A    between atoms: _242  and  _243
REMARK  104  A    between atoms: _242  and  _245
REMARK  105  A    between atoms: _245  and  _246
REMARK  106  A    between atoms: _246  and  _247
REMARK  107  A    between atoms: _247  and  _248
REMARK  108  A    between atoms: _257  and  _259
REMARK  109  A    between atoms: _259  and  _260
REMARK  110  A    between atoms: _262  and  _264
REMARK  111  A    between atoms: _264  and  _265
REMARK  112  A    between atoms: _264  and  _267
REMARK  113  A    between atoms: _267  and  _268
REMARK  114  A    between atoms: _271  and  _273
REMARK  115  A    between atoms: _273  and  _274
REMARK  116  A    between atoms: _273  and  _276
REMARK  117  A    between atoms: _276  and  _277
REMARK  118  A    between atoms: _277  and  _278
REMARK  119  A    between atoms: _278  and  _279
REMARK  120  A    between atoms: _288  and  _290
REMARK  121  A    between atoms: _290  and  _291
REMARK  122  A    between atoms: _290  and  _293
REMARK  123  A    between atoms: _293  and  _294
REMARK  124  A    between atoms: _300  and  _302
REMARK  125  A    between atoms: _302  and  _303
REMARK  126  A    between atoms: _302  and  _305
REMARK  127  A    between atoms: _305  and  _306
REMARK  128  A    between atoms: _309  and  _311
REMARK  129  A    between atoms: _311  and  _312
REMARK  130  A    between atoms: _311  and  _314
REMARK  131  A    between atoms: _314  and  _315
REMARK  132  A    between atoms: _321  and  _323
REMARK  133  A    between atoms: _323  and  _324
REMARK  134  A    between atoms: _323  and  _326
REMARK  135  A    between atoms: _326  and  _327
REMARK  136  A    between atoms: _330  and  _332
REMARK  137  A    between atoms: _332  and  _333
REMARK  138  A    between atoms: _332  and  _335
REMARK  139  A    between atoms: _335  and  _336
REMARK  140  A    between atoms: _339  and  _341
REMARK  141  A    between atoms: _341  and  _342
REMARK  142  A    between atoms: _341  and  _344
REMARK  143  A    between atoms: _344  and  _345
REMARK  144  A    between atoms: _348  and  _350
REMARK  145  A    between atoms: _350  and  _351
REMARK  146  A    between atoms: _350  and  _353
REMARK  147  A    between atoms: _353  and  _354
REMARK  148  A    between atoms: _354  and  _355
REMARK  149  A    between atoms: _355  and  _356
REMARK  150  A    between atoms: _365  and  _367
REMARK  151  A    between atoms: _367  and  _368
REMARK  152  A    between atoms: _367  and  _370
REMARK  153  A    between atoms: _370  and  _371
REMARK  154  A    between atoms: _376  and  _378
REMARK  155  A    between atoms: _378  and  _379
REMARK  156  A    between atoms: _382  and  _384
REMARK  157  A    between atoms: _384  and  _385
REMARK  158  A    between atoms: _384  and  _387
REMARK  159  A    between atoms: _387  and  _388
REMARK  160  A    between atoms: _391  and  _393
REMARK  161  A    between atoms: _393  and  _394
REMARK  162  A    between atoms: _397  and  _399
REMARK  163  A    between atoms: _399  and  _400
REMARK  164  A    between atoms: _399  and  _402
REMARK  165  A    between atoms: _402  and  _403
REMARK  166  A    between atoms: _408  and  _409
REMARK  167  A    between atoms: _411  and  _413
REMARK  168  A    between atoms: _413  and  _414
REMARK  169  A    between atoms: _417  and  _419
REMARK  170  A    between atoms: _419  and  _420
REMARK  171  A    between atoms: _419  and  _422
REMARK  172  A    between atoms: _422  and  _423
REMARK  173  A    between atoms: _426  and  _428
REMARK  174  A    between atoms: _428  and  _429
REMARK  175  A    between atoms: _428  and  _431
REMARK  176  A    between atoms: _431  and  _432
REMARK  177  A    between atoms: _432  and  _433
REMARK  178  A    between atoms: _433  and  _434
REMARK  179  A    between atoms: _434  and  _435
REMARK  180  A    between atoms: _439  and  _441
REMARK  181  A    between atoms: _441  and  _442
REMARK  182  A    between atoms: _441  and  _444
REMARK  183  A    between atoms: _444  and  _445
REMARK  184  A    between atoms: _450  and  _451
REMARK  185  A    between atoms: _453  and  _455
REMARK  186  A    between atoms: _455  and  _456
REMARK  187  A    between atoms: _455  and  _458
REMARK  188  A    between atoms: _458  and  _459
REMARK  189  A    between atoms: _464  and  _466
REMARK  190  A    between atoms: _466  and  _467
REMARK  191  A    between atoms: _469  and  _471
REMARK  192  A    between atoms: _471  and  _472
REMARK  193  A    between atoms: _471  and  _474
REMARK  194  A    between atoms: _474  and  _475
REMARK  195  A    between atoms: _478  and  _480
REMARK  196  A    between atoms: _480  and  _481
REMARK  197  A    between atoms: _480  and  _483
REMARK  198  A    between atoms: _486  and  _488
REMARK  199  A    between atoms: _488  and  _489
REMARK  200  A    between atoms: _488  and  _491
REMARK  201  A    between atoms: _491  and  _492
REMARK  202  A    between atoms: _495  and  _497
REMARK  203  A    between atoms: _497  and  _498
REMARK  204  A    between atoms: _497  and  _500
REMARK  205  A    between atoms: _500  and  _501
REMARK  206  A    between atoms: _507  and  _509
REMARK  207  A    between atoms: _509  and  _510
REMARK  208  A    between atoms: _509  and  _512
REMARK  209  A    between atoms: _512  and  _513
REMARK  210  A    between atoms: _513  and  _514
REMARK  211  A    between atoms: _519  and  _521
REMARK  212  A    between atoms: _521  and  _522
REMARK  213  A    between atoms: _525  and  _527
REMARK  214  A    between atoms: _527  and  _528
REMARK  215  A    between atoms: _531  and  _533
REMARK  216  A    between atoms: _533  and  _534
REMARK  217  A    between atoms: _533  and  _536
REMARK  218  A    between atoms: _536  and  _537
REMARK  219  A    between atoms: _540  and  _542
REMARK  220  A    between atoms: _542  and  _543
REMARK  221  A    between atoms: _542  and  _545
REMARK  222  A    between atoms: _545  and  _546
REMARK  223  A    between atoms: _551  and  _552
REMARK  224  A    between atoms: _554  and  _556
REMARK  225  A    between atoms: _556  and  _557
REMARK  226  A    between atoms: _560  and  _562
REMARK  227  A    between atoms: _562  and  _563
REMARK  228  A    between atoms: _567  and  _568
REMARK  229  A    between atoms: _573  and  _575
REMARK  230  A    between atoms: _575  and  _576
REMARK  231  A    between atoms: _575  and  _578
REMARK  232  A    between atoms: _578  and  _579
REMARK  233  A    between atoms: _585  and  _587
REMARK  234  A    between atoms: _587  and  _588
REMARK  235  A    between atoms: _587  and  _590
REMARK  236  A    between atoms: _590  and  _591
REMARK  237  A    between atoms: _596  and  _597
REMARK  238  A    between atoms: _599  and  _601
REMARK  239  A    between atoms: _601  and  _602
REMARK  240  A    between atoms: _601  and  _604
REMARK  241  A    between atoms: _604  and  _605
REMARK  242  A    between atoms: _605  and  _606
REMARK  243  A    between atoms: _606  and  _607
REMARK  244  A    between atoms: _607  and  _608
REMARK  245  A    between atoms: _612  and  _614
REMARK  246  A    between atoms: _614  and  _615
REMARK  247  A    between atoms: _614  and  _617
REMARK                            x       y       z     vdW  Elec       q    Type
REMARK                         _______ _______ _______ _____ _____    ______ ____
ROOT
ATOM      1  O   HOH     1      26.843  10.018  19.024  0.00  0.00    +0.000 OA
ENDROOT
TORSDOF 0
REMARK  Name = ../refined-set-2016/2evl/2evl_pocket.pdb
REMARK  247 active torsions:
REMARK  status: ('A' for Active; 'I' for Inactive)
REMARK    1  A    between atoms: _1  and  _3
REMARK    2  A    between atoms: _3  and  _4
REMARK    3  A    between atoms: _3  and  _6
REMARK    4  A    between atoms: _6  and  _7
REMARK    5  A    between atoms: _13  and  _15
REMARK    6  A    between atoms: _15  and  _16
REMARK    7  A    between atoms: _15  and  _18
REMARK    8  A    between atoms: _18  and  _19
REMARK    9  A    between atoms: _22  and  _24
REMARK   10  A    between atoms: _24  and  _25
REMARK   11  A    between atoms: _24  and  _27
REMARK   12  A    between atoms: _30  and  _32
REMARK   13  A    between atoms: _32  and  _33
REMARK   14  A    between atoms: _32  and  _35
REMARK   15  A    between atoms: _35  and  _36
REMARK   16  A    between atoms: _42  and  _44
REMARK   17  A    between atoms: _44  and  _45
REMARK   18  A    between atoms: _44  and  _47
REMARK   19  A    between atoms: _47  and  _48
REMARK   20  A    between atoms: _52  and  _53
REMARK   21  A    between atoms: _58  and  _60
REMARK   22  A    between atoms: _60  and  _61
REMARK   23  A    between atoms: _60  and  _63
REMARK   24  A    between atoms: _63  and  _64
REMARK   25  A    between atoms: _67  and  _69
REMARK   26  A    between atoms: _69  and  _70
REMARK   27  A    between atoms: _69  and  _72
REMARK   28  A    between atoms: _72  and  _73
REMARK   29  A    between atoms: _73  and  _74
REMARK   30  A    between atoms: _74  and  _75
REMARK   31  A    between atoms: _75  and  _76
REMARK   32  A    between atoms: _80  and  _82
REMARK   33  A    between atoms: _82  and  _83
REMARK   34  A    between atoms: _86  and  _88
REMARK   35  A    between atoms: _88  and  _89
REMARK   36  A    between atoms: _88  and  _91
REMARK   37  A    between atoms: _91  and  _92
REMARK   38  A    between atoms: _95  and  _97
REMARK   39  A    between atoms: _97  and  _98
REMARK   40  A    between atoms: _97  and  _100
REMARK   41  A    between atoms: _100  and  _101
REMARK   42  A    between atoms: _104  and  _106
REMARK   43  A    between atoms: _106  and  _107
REMARK   44  A    between atoms: _109  and  _111
REMARK   45  A    between atoms: _111  and  _112
REMARK   46  A    between atoms: _111  and  _114
REMARK   47  A    between atoms: _114  and  _115
REMARK   48  A    between atoms: _120  and  _122
REMARK   49  A    between atoms: _122  and  _123
REMARK   50  A    between atoms: _122  and  _125
REMARK   51  A    between atoms: _125  and  _126
REMARK   52  A    between atoms: _129  and  _131
REMARK   53  A    between atoms: _131  and  _132
REMARK   54  A    between atoms: _131  and  _134
REMARK   55  A    between atoms: _134  and  _135
REMARK   56  A    between atoms: _135  and  _136
REMARK   57  A    between atoms: _136  and  _137
REMARK   58  A    between atoms: _137  and  _138
REMARK   59  A    between atoms: _142  and  _144
REMARK   60  A    between atoms: _144  and  _145
REMARK   61  A    between atoms: _144  and  _147
REMARK   62  A    between atoms: _147  and  _148
REMARK   63  A    between atoms: _151  and  _153
REMARK   64  A    between atoms: _153  and  _154
REMARK   65  A    between atoms: _153  and  _156
REMARK   66  A    between atoms: _156  and  _157
REMARK   67  A    between atoms: _157  and  _158
REMARK   68  A    between atoms: _158  and  _159
REMARK   69  A    between atoms: _159  and  _160
REMARK   70  A    between atoms: _164  and  _166
REMARK   71  A    between atoms: _166  and  _167
REMARK   72  A    between atoms: _169  and  _171
REMARK   73  A    between atoms: _171  and  _172
REMARK   74  A    between atoms: _171  and  _174
REMARK   75  A    between atoms: _174  and  _175
REMARK   76  A    between atoms: _178  and  _180
REMARK   77  A    between atoms: _180  and  _181
REMARK   78  A    between atoms: _184  and  _186
REMARK   79  A    between atoms: _186  and  _187
REMARK   80  A    between atoms: _186  and  _189
REMARK   81  A    between atoms: _189  and  _190
REMARK   82  A    between atoms: _193  and  _195
REMARK   83  A    between atoms: _195  and  _196
REMARK   84  A    between atoms: _195  and  _198
REMARK   85  A    between atoms: _198  and  _199
REMARK   86  A    between atoms: _199  and  _200
REMARK   87  A    between atoms: _202  and  _204
REMARK   88  A    between atoms: _204  and  _205
REMARK   89  A    between atoms: _204  and  _207
REMARK   90  A    between atoms: _207  and  _208
REMARK   91  A    between atoms: _218  and  _220
REMARK   92  A    between atoms: _220  and  _221
REMARK   93  A    between atoms: _220  and  _223
REMARK   94  A    between atoms: _223  and  _224
REMARK   95  A    between atoms: _227  and  _229
REMARK   96  A    between atoms: _229  and  _230
REMARK   97  A    between atoms: _229  and  _232
REMARK   98  A    between atoms: _232  and  _233
REMARK   99  A    between atoms: _233  and  _234
REMARK  100  A    between atoms: _234  and  _235
REMARK  101  A    between atoms: _235  and  _236
REMARK  102  A    between atoms: _240  and  _242
REMARK  103  A    between atoms: _242  and  _243
REMARK  104  A    between atoms: _242  and  _245
REMARK  105  A    between atoms: _245  and  _246
REMARK  106  A    between atoms: _246  and  _247
REMARK  107  A    between atoms: _247  and  _248
REMARK  108  A    between atoms: _257  and  _259
REMARK  109  A    between atoms: _259  and  _260
REMARK  110  A    between atoms: _262  and  _264
REMARK  111  A    between atoms: _264  and  _265
REMARK  112  A    between atoms: _264  and  _267
REMARK  113  A    between atoms: _267  and  _268
REMARK  114  A    between atoms: _271  and  _273
REMARK  115  A    between atoms: _273  and  _274
REMARK  116  A    between atoms: _273  and  _276
REMARK  117  A    between atoms: _276  and  _277
REMARK  118  A    between atoms: _277  and  _278
REMARK  119  A    between atoms: _278  and  _279
REMARK  120  A    between atoms: _288  and  _290
REMARK  121  A    between atoms: _290  and  _291
REMARK  122  A    between atoms: _290  and  _293
REMARK  123  A    between atoms: _293  and  _294
REMARK  124  A    between atoms: _300  and  _302
REMARK  125  A    between atoms: _302  and  _303
REMARK  126  A    between atoms: _302  and  _305
REMARK  127  A    between atoms: _305  and  _306
REMARK  128  A    between atoms: _309  and  _311
REMARK  129  A    between atoms: _311  and  _312
REMARK  130  A    between atoms: _311  and  _314
REMARK  131  A    between atoms: _314  and  _315
REMARK  132  A    between atoms: _321  and  _323
REMARK  133  A    between atoms: _323  and  _324
REMARK  134  A    between atoms: _323  and  _326
REMARK  135  A    between atoms: _326  and  _327
REMARK  136  A    between atoms: _330  and  _332
REMARK  137  A    between atoms: _332  and  _333
REMARK  138  A    between atoms: _332  and  _335
REMARK  139  A    between atoms: _335  and  _336
REMARK  140  A    between atoms: _339  and  _341
REMARK  141  A    between atoms: _341  and  _342
REMARK  142  A    between atoms: _341  and  _344
REMARK  143  A    between atoms: _344  and  _345
REMARK  144  A    between atoms: _348  and  _350
REMARK  145  A    between atoms: _350  and  _351
REMARK  146  A    between atoms: _350  and  _353
REMARK  147  A    between atoms: _353  and  _354
REMARK  148  A    between atoms: _354  and  _355
REMARK  149  A    between atoms: _355  and  _356
REMARK  150  A    between atoms: _365  and  _367
REMARK  151  A    between atoms: _367  and  _368
REMARK  152  A    between atoms: _367  and  _370
REMARK  153  A    between atoms: _370  and  _371
REMARK  154  A    between atoms: _376  and  _378
REMARK  155  A    between atoms: _378  and  _379
REMARK  156  A    between atoms: _382  and  _384
REMARK  157  A    between atoms: _384  and  _385
REMARK  158  A    between atoms: _384  and  _387
REMARK  159  A    between atoms: _387  and  _388
REMARK  160  A    between atoms: _391  and  _393
REMARK  161  A    between atoms: _393  and  _394
REMARK  162  A    between atoms: _397  and  _399
REMARK  163  A    between atoms: _399  and  _400
REMARK  164  A    between atoms: _399  and  _402
REMARK  165  A    between atoms: _402  and  _403
REMARK  166  A    between atoms: _408  and  _409
REMARK  167  A    between atoms: _411  and  _413
REMARK  168  A    between atoms: _413  and  _414
REMARK  169  A    between atoms: _417  and  _419
REMARK  170  A    between atoms: _419  and  _420
REMARK  171  A    between atoms: _419  and  _422
REMARK  172  A    between atoms: _422  and  _423
REMARK  173  A    between atoms: _426  and  _428
REMARK  174  A    between atoms: _428  and  _429
REMARK  175  A    between atoms: _428  and  _431
REMARK  176  A    between atoms: _431  and  _432
REMARK  177  A    between atoms: _432  and  _433
REMARK  178  A    between atoms: _433  and  _434
REMARK  179  A    between atoms: _434  and  _435
REMARK  180  A    between atoms: _439  and  _441
REMARK  181  A    between atoms: _441  and  _442
REMARK  182  A    between atoms: _441  and  _444
REMARK  183  A    between atoms: _444  and  _445
REMARK  184  A    between atoms: _450  and  _451
REMARK  185  A    between atoms: _453  and  _455
REMARK  186  A    between atoms: _455  and  _456
REMARK  187  A    between atoms: _455  and  _458
REMARK  188  A    between atoms: _458  and  _459
REMARK  189  A    between atoms: _464  and  _466
REMARK  190  A    between atoms: _466  and  _467
REMARK  191  A    between atoms: _469  and  _471
REMARK  192  A    between atoms: _471  and  _472
REMARK  193  A    between atoms: _471  and  _474
REMARK  194  A    between atoms: _474  and  _475
REMARK  195  A    between atoms: _478  and  _480
REMARK  196  A    between atoms: _480  and  _481
REMARK  197  A    between atoms: _480  and  _483
REMARK  198  A    between atoms: _486  and  _488
REMARK  199  A    between atoms: _488  and  _489
REMARK  200  A    between atoms: _488  and  _491
REMARK  201  A    between atoms: _491  and  _492
REMARK  202  A    between atoms: _495  and  _497
REMARK  203  A    between atoms: _497  and  _498
REMARK  204  A    between atoms: _497  and  _500
REMARK  205  A    between atoms: _500  and  _501
REMARK  206  A    between atoms: _507  and  _509
REMARK  207  A    between atoms: _509  and  _510
REMARK  208  A    between atoms: _509  and  _512
REMARK  209  A    between atoms: _512  and  _513
REMARK  210  A    between atoms: _513  and  _514
REMARK  211  A    between atoms: _519  and  _521
REMARK  212  A    between atoms: _521  and  _522
REMARK  213  A    between atoms: _525  and  _527
REMARK  214  A    between atoms: _527  and  _528
REMARK  215  A    between atoms: _531  and  _533
REMARK  216  A    between atoms: _533  and  _534
REMARK  217  A    between atoms: _533  and  _536
REMARK  218  A    between atoms: _536  and  _537
REMARK  219  A    between atoms: _540  and  _542
REMARK  220  A    between atoms: _542  and  _543
REMARK  221  A    between atoms: _542  and  _545
REMARK  222  A    between atoms: _545  and  _546
REMARK  223  A    between atoms: _551  and  _552
REMARK  224  A    between atoms: _554  and  _556
REMARK  225  A    between atoms: _556  and  _557
REMARK  226  A    between atoms: _560  and  _562
REMARK  227  A    between atoms: _562  and  _563
REMARK  228  A    between atoms: _567  and  _568
REMARK  229  A    between atoms: _573  and  _575
REMARK  230  A    between atoms: _575  and  _576
REMARK  231  A    between atoms: _575  and  _578
REMARK  232  A    between atoms: _578  and  _579
REMARK  233  A    between atoms: _585  and  _587
REMARK  234  A    between atoms: _587  and  _588
REMARK  235  A    between atoms: _587  and  _590
REMARK  236  A    between atoms: _590  and  _591
REMARK  237  A    between atoms: _596  and  _597
REMARK  238  A    between atoms: _599  and  _601
REMARK  239  A    between atoms: _601  and  _602
REMARK  240  A    between atoms: _601  and  _604
REMARK  241  A    between atoms: _604  and  _605
REMARK  242  A    between atoms: _605  and  _606
REMARK  243  A    between atoms: _606  and  _607
REMARK  244  A    between atoms: _607  and  _608
REMARK  245  A    between atoms: _612  and  _614
REMARK  246  A    between atoms: _614  and  _615
REMARK  247  A    between atoms: _614  and  _617
REMARK                            x       y       z     vdW  Elec       q    Type
REMARK                         _______ _______ _______ _____ _____    ______ ____
ROOT
ATOM      1  O   HOH     1      30.620  -5.828  15.568  0.00  0.00    +0.000 OA
ENDROOT
TORSDOF 0
