REMARK  Name = ../refined-set-2016/2qi0/2qi0_pocket.pdb
REMARK  223 active torsions:
REMARK  status: ('A' for Active; 'I' for Inactive)
REMARK    1  A    between atoms: _1  and  _3
REMARK    2  A    between atoms: _3  and  _4
REMARK    3  A    between atoms: _3  and  _6
REMARK    4  A    between atoms: _6  and  _7
REMARK    5  A    between atoms: _7  and  _8
REMARK    6  A    between atoms: _8  and  _9
REMARK    7  A    between atoms: _18  and  _20
REMARK    8  A    between atoms: _20  and  _21
REMARK    9  A    between atoms: _20  and  _23
REMARK   10  A    between atoms: _23  and  _24
REMARK   11  A    between atoms: _27  and  _29
REMARK   12  A    between atoms: _29  and  _30
REMARK   13  A    between atoms: _29  and  _32
REMARK   14  A    between atoms: _32  and  _33
REMARK   15  A    between atoms: _36  and  _38
REMARK   16  A    between atoms: _38  and  _39
REMARK   17  A    between atoms: _38  and  _41
REMARK   18  A    between atoms: _41  and  _42
REMARK   19  A    between atoms: _45  and  _47
REMARK   20  A    between atoms: _47  and  _48
REMARK   21  A    between atoms: _47  and  _50
REMARK   22  A    between atoms: _50  and  _51
REMARK   23  A    between atoms: _54  and  _56
REMARK   24  A    between atoms: _56  and  _57
REMARK   25  A    between atoms: _59  and  _61
REMARK   26  A    between atoms: _61  and  _62
REMARK   27  A    between atoms: _65  and  _67
REMARK   28  A    between atoms: _67  and  _68
REMARK   29  A    between atoms: _67  and  _70
REMARK   30  A    between atoms: _70  and  _71
REMARK   31  A    between atoms: _74  and  _76
REMARK   32  A    between atoms: _76  and  _77
REMARK   33  A    between atoms: _76  and  _79
REMARK   34  A    between atoms: _79  and  _80
REMARK   35  A    between atoms: _83  and  _85
REMARK   36  A    between atoms: _85  and  _86
REMARK   37  A    between atoms: _85  and  _88
REMARK   38  A    between atoms: _88  and  _89
REMARK   39  A    between atoms: _92  and  _94
REMARK   40  A    between atoms: _94  and  _95
REMARK   41  A    between atoms: _94  and  _97
REMARK   42  A    between atoms: _100  and  _102
REMARK   43  A    between atoms: _102  and  _103
REMARK   44  A    between atoms: _102  and  _105
REMARK   45  A    between atoms: _105  and  _106
REMARK   46  A    between atoms: _109  and  _111
REMARK   47  A    between atoms: _111  and  _112
REMARK   48  A    between atoms: _111  and  _114
REMARK   49  A    between atoms: _114  and  _115
REMARK   50  A    between atoms: _115  and  _116
REMARK   51  A    between atoms: _118  and  _120
REMARK   52  A    between atoms: _120  and  _121
REMARK   53  A    between atoms: _120  and  _123
REMARK   54  A    between atoms: _123  and  _124
REMARK   55  A    between atoms: _127  and  _129
REMARK   56  A    between atoms: _129  and  _130
REMARK   57  A    between atoms: _132  and  _134
REMARK   58  A    between atoms: _134  and  _135
REMARK   59  A    between atoms: _137  and  _139
REMARK   60  A    between atoms: _139  and  _140
REMARK   61  A    between atoms: _139  and  _142
REMARK   62  A    between atoms: _142  and  _143
REMARK   63  A    between atoms: _146  and  _148
REMARK   64  A    between atoms: _148  and  _149
REMARK   65  A    between atoms: _151  and  _153
REMARK   66  A    between atoms: _153  and  _154
REMARK   67  A    between atoms: _156  and  _158
REMARK   68  A    between atoms: _158  and  _159
REMARK   69  A    between atoms: _158  and  _161
REMARK   70  A    between atoms: _161  and  _162
REMARK   71  A    between atoms: _165  and  _167
REMARK   72  A    between atoms: _167  and  _168
REMARK   73  A    between atoms: _167  and  _170
REMARK   74  A    between atoms: _173  and  _175
REMARK   75  A    between atoms: _175  and  _176
REMARK   76  A    between atoms: _175  and  _178
REMARK   77  A    between atoms: _178  and  _179
REMARK   78  A    between atoms: _183  and  _184
REMARK   79  A    between atoms: _189  and  _191
REMARK   80  A    between atoms: _191  and  _192
REMARK   81  A    between atoms: _191  and  _194
REMARK   82  A    between atoms: _194  and  _195
REMARK   83  A    between atoms: _199  and  _200
REMARK   84  A    between atoms: _205  and  _207
REMARK   85  A    between atoms: _207  and  _208
REMARK   86  A    between atoms: _207  and  _210
REMARK   87  A    between atoms: _213  and  _215
REMARK   88  A    between atoms: _215  and  _216
REMARK   89  A    between atoms: _215  and  _218
REMARK   90  A    between atoms: _218  and  _219
REMARK   91  A    between atoms: _224  and  _226
REMARK   92  A    between atoms: _226  and  _227
REMARK   93  A    between atoms: _226  and  _229
REMARK   94  A    between atoms: _229  and  _230
REMARK   95  A    between atoms: _233  and  _235
REMARK   96  A    between atoms: _235  and  _236
REMARK   97  A    between atoms: _235  and  _238
REMARK   98  A    between atoms: _238  and  _239
REMARK   99  A    between atoms: _242  and  _244
REMARK  100  A    between atoms: _244  and  _245
REMARK  101  A    between atoms: _247  and  _249
REMARK  102  A    between atoms: _249  and  _250
REMARK  103  A    between atoms: _249  and  _252
REMARK  104  A    between atoms: _252  and  _253
REMARK  105  A    between atoms: _253  and  _254
REMARK  106  A    between atoms: _254  and  _255
REMARK  107  A    between atoms: _264  and  _266
REMARK  108  A    between atoms: _266  and  _267
REMARK  109  A    between atoms: _266  and  _269
REMARK  110  A    between atoms: _269  and  _270
REMARK  111  A    between atoms: _275  and  _277
REMARK  112  A    between atoms: _277  and  _278
REMARK  113  A    between atoms: _277  and  _280
REMARK  114  A    between atoms: _280  and  _281
REMARK  115  A    between atoms: _281  and  _282
REMARK  116  A    between atoms: _282  and  _283
REMARK  117  A    between atoms: _292  and  _294
REMARK  118  A    between atoms: _294  and  _295
REMARK  119  A    between atoms: _294  and  _297
REMARK  120  A    between atoms: _297  and  _298
REMARK  121  A    between atoms: _301  and  _303
REMARK  122  A    between atoms: _303  and  _304
REMARK  123  A    between atoms: _303  and  _306
REMARK  124  A    between atoms: _306  and  _307
REMARK  125  A    between atoms: _310  and  _312
REMARK  126  A    between atoms: _312  and  _313
REMARK  127  A    between atoms: _312  and  _315
REMARK  128  A    between atoms: _315  and  _316
REMARK  129  A    between atoms: _319  and  _321
REMARK  130  A    between atoms: _321  and  _322
REMARK  131  A    between atoms: _321  and  _324
REMARK  132  A    between atoms: _324  and  _325
REMARK  133  A    between atoms: _328  and  _330
REMARK  134  A    between atoms: _330  and  _331
REMARK  135  A    between atoms: _333  and  _335
REMARK  136  A    between atoms: _335  and  _336
REMARK  137  A    between atoms: _339  and  _341
REMARK  138  A    between atoms: _341  and  _342
REMARK  139  A    between atoms: _341  and  _344
REMARK  140  A    between atoms: _344  and  _345
REMARK  141  A    between atoms: _348  and  _350
REMARK  142  A    between atoms: _350  and  _351
REMARK  143  A    between atoms: _350  and  _353
REMARK  144  A    between atoms: _353  and  _354
REMARK  145  A    between atoms: _357  and  _359
REMARK  146  A    between atoms: _359  and  _360
REMARK  147  A    between atoms: _359  and  _362
REMARK  148  A    between atoms: _362  and  _363
REMARK  149  A    between atoms: _366  and  _368
REMARK  150  A    between atoms: _368  and  _369
REMARK  151  A    between atoms: _368  and  _371
REMARK  152  A    between atoms: _374  and  _376
REMARK  153  A    between atoms: _376  and  _377
REMARK  154  A    between atoms: _376  and  _379
REMARK  155  A    between atoms: _379  and  _380
REMARK  156  A    between atoms: _380  and  _381
REMARK  157  A    between atoms: _381  and  _382
REMARK  158  A    between atoms: _382  and  _383
REMARK  159  A    between atoms: _387  and  _389
REMARK  160  A    between atoms: _389  and  _390
REMARK  161  A    between atoms: _389  and  _392
REMARK  162  A    between atoms: _392  and  _393
REMARK  163  A    between atoms: _393  and  _394
REMARK  164  A    between atoms: _396  and  _398
REMARK  165  A    between atoms: _398  and  _399
REMARK  166  A    between atoms: _398  and  _401
REMARK  167  A    between atoms: _401  and  _402
REMARK  168  A    between atoms: _405  and  _407
REMARK  169  A    between atoms: _407  and  _408
REMARK  170  A    between atoms: _410  and  _412
REMARK  171  A    between atoms: _412  and  _413
REMARK  172  A    between atoms: _415  and  _417
REMARK  173  A    between atoms: _417  and  _418
REMARK  174  A    between atoms: _417  and  _420
REMARK  175  A    between atoms: _420  and  _421
REMARK  176  A    between atoms: _424  and  _426
REMARK  177  A    between atoms: _426  and  _427
REMARK  178  A    between atoms: _429  and  _431
REMARK  179  A    between atoms: _431  and  _432
REMARK  180  A    between atoms: _434  and  _436
REMARK  181  A    between atoms: _436  and  _437
REMARK  182  A    between atoms: _436  and  _439
REMARK  183  A    between atoms: _439  and  _440
REMARK  184  A    between atoms: _446  and  _448
REMARK  185  A    between atoms: _448  and  _449
REMARK  186  A    between atoms: _448  and  _451
REMARK  187  A    between atoms: _451  and  _452
REMARK  188  A    between atoms: _455  and  _457
REMARK  189  A    between atoms: _457  and  _458
REMARK  190  A    between atoms: _457  and  _460
REMARK  191  A    between atoms: _460  and  _461
REMARK  192  A    between atoms: _464  and  _466
REMARK  193  A    between atoms: _466  and  _467
REMARK  194  A    between atoms: _466  and  _469
REMARK  195  A    between atoms: _469  and  _470
REMARK  196  A    between atoms: _474  and  _475
REMARK  197  A    between atoms: _480  and  _482
REMARK  198  A    between atoms: _482  and  _483
REMARK  199  A    between atoms: _482  and  _485
REMARK  200  A    between atoms: _488  and  _490
REMARK  201  A    between atoms: _490  and  _491
REMARK  202  A    between atoms: _490  and  _493
REMARK  203  A    between atoms: _493  and  _494
REMARK  204  A    between atoms: _499  and  _501
REMARK  205  A    between atoms: _501  and  _502
REMARK  206  A    between atoms: _501  and  _504
REMARK  207  A    between atoms: _504  and  _505
REMARK  208  A    between atoms: _508  and  _510
REMARK  209  A    between atoms: _510  and  _511
REMARK  210  A    between atoms: _510  and  _513
REMARK  211  A    between atoms: _513  and  _514
REMARK  212  A    between atoms: _517  and  _519
REMARK  213  A    between atoms: _519  and  _520
REMARK  214  A    between atoms: _522  and  _524
REMARK  215  A    between atoms: _524  and  _525
REMARK  216  A    between atoms: _524  and  _527
REMARK  217  A    between atoms: _527  and  _528
REMARK  218  A    between atoms: _528  and  _529
REMARK  219  A    between atoms: _529  and  _530
REMARK  220  A    between atoms: _539  and  _541
REMARK  221  A    between atoms: _541  and  _542
REMARK  222  A    between atoms: _541  and  _544
REMARK  223  A    between atoms: _544  and  _545
REMARK                            x       y       z     vdW  Elec       q    Type
REMARK                         _______ _______ _______ _____ _____    ______ ____
ROOT
ATOM      1  NE  ARG A   1      21.564  37.675  24.024  0.00  0.00    -0.265 N 
ATOM      2  HE  ARG A   1      21.215  38.277  24.797  0.00  0.00    +0.259 HD
ATOM      3  CZ  ARG A   1      21.209  38.001  22.782  0.00  0.00    +0.342 C 
ATOM      4  NH2 ARG A   1      20.460  39.081  22.564  0.00  0.00    -0.292 N 
ATOM      5 HH21 ARG A   1      20.152  39.670  23.364  0.00  0.00    +0.255 HD
ATOM      6 HH22 ARG A   1      20.183  39.335  21.594  0.00  0.00    +0.255 HD
ATOM      7  NH1 ARG A   1      21.602  37.254  21.753  0.00  0.00    -0.292 N 
ATOM      8 HH11 ARG A   1      22.189  36.411  21.916  0.00  0.00    +0.255 HD
ATOM      9 HH12 ARG A   1      21.322  37.513  20.785  0.00  0.00    +0.255 HD
ENDROOT
BRANCH   1  10
ATOM     10  CD  ARG A   1      22.407  36.534  24.384  0.00  0.00    +0.174 C 
BRANCH  10  11
ATOM     11  CG  ARG A   1      21.647  35.453  25.131  0.00  0.00    +0.045 C 
BRANCH  11  12
ATOM     12  CB  ARG A   1      22.591  34.673  25.996  0.00  0.00    +0.029 C 
BRANCH  12  13
ATOM     13  CA  ARG A   1      21.937  33.649  26.916  0.00  0.00    +0.133 C 
BRANCH  13  14
ATOM     14  N   ARG A   1      21.242  34.309  28.026  0.00  0.00    -0.239 NA
ATOM     15  H   ARG A   1      21.182  35.347  28.047  0.00  0.00    +0.142 HD
ENDBRANCH  13  14
BRANCH  13  16
ATOM     16  C   ARG A   1      23.038  32.716  27.438  0.00  0.00    +0.224 C 
ATOM     17  O   ARG A   1      23.873  33.117  28.255  0.00  0.00    -0.287 OA
ENDBRANCH  13  16
ENDBRANCH  12  13
ENDBRANCH  11  12
ENDBRANCH  10  11
ENDBRANCH   1  10
TORSDOF 6
REMARK  Name = ../refined-set-2016/2qi0/2qi0_pocket.pdb
REMARK  223 active torsions:
REMARK  status: ('A' for Active; 'I' for Inactive)
REMARK    1  A    between atoms: _1  and  _3
REMARK    2  A    between atoms: _3  and  _4
REMARK    3  A    between atoms: _3  and  _6
REMARK    4  A    between atoms: _6  and  _7
REMARK    5  A    between atoms: _7  and  _8
REMARK    6  A    between atoms: _8  and  _9
REMARK    7  A    between atoms: _18  and  _20
REMARK    8  A    between atoms: _20  and  _21
REMARK    9  A    between atoms: _20  and  _23
REMARK   10  A    between atoms: _23  and  _24
REMARK   11  A    between atoms: _27  and  _29
REMARK   12  A    between atoms: _29  and  _30
REMARK   13  A    between atoms: _29  and  _32
REMARK   14  A    between atoms: _32  and  _33
REMARK   15  A    between atoms: _36  and  _38
REMARK   16  A    between atoms: _38  and  _39
REMARK   17  A    between atoms: _38  and  _41
REMARK   18  A    between atoms: _41  and  _42
REMARK   19  A    between atoms: _45  and  _47
REMARK   20  A    between atoms: _47  and  _48
REMARK   21  A    between atoms: _47  and  _50
REMARK   22  A    between atoms: _50  and  _51
REMARK   23  A    between atoms: _54  and  _56
REMARK   24  A    between atoms: _56  and  _57
REMARK   25  A    between atoms: _59  and  _61
REMARK   26  A    between atoms: _61  and  _62
REMARK   27  A    between atoms: _65  and  _67
REMARK   28  A    between atoms: _67  and  _68
REMARK   29  A    between atoms: _67  and  _70
REMARK   30  A    between atoms: _70  and  _71
REMARK   31  A    between atoms: _74  and  _76
REMARK   32  A    between atoms: _76  and  _77
REMARK   33  A    between atoms: _76  and  _79
REMARK   34  A    between atoms: _79  and  _80
REMARK   35  A    between atoms: _83  and  _85
REMARK   36  A    between atoms: _85  and  _86
REMARK   37  A    between atoms: _85  and  _88
REMARK   38  A    between atoms: _88  and  _89
REMARK   39  A    between atoms: _92  and  _94
REMARK   40  A    between atoms: _94  and  _95
REMARK   41  A    between atoms: _94  and  _97
REMARK   42  A    between atoms: _100  and  _102
REMARK   43  A    between atoms: _102  and  _103
REMARK   44  A    between atoms: _102  and  _105
REMARK   45  A    between atoms: _105  and  _106
REMARK   46  A    between atoms: _109  and  _111
REMARK   47  A    between atoms: _111  and  _112
REMARK   48  A    between atoms: _111  and  _114
REMARK   49  A    between atoms: _114  and  _115
REMARK   50  A    between atoms: _115  and  _116
REMARK   51  A    between atoms: _118  and  _120
REMARK   52  A    between atoms: _120  and  _121
REMARK   53  A    between atoms: _120  and  _123
REMARK   54  A    between atoms: _123  and  _124
REMARK   55  A    between atoms: _127  and  _129
REMARK   56  A    between atoms: _129  and  _130
REMARK   57  A    between atoms: _132  and  _134
REMARK   58  A    between atoms: _134  and  _135
REMARK   59  A    between atoms: _137  and  _139
REMARK   60  A    between atoms: _139  and  _140
REMARK   61  A    between atoms: _139  and  _142
REMARK   62  A    between atoms: _142  and  _143
REMARK   63  A    between atoms: _146  and  _148
REMARK   64  A    between atoms: _148  and  _149
REMARK   65  A    between atoms: _151  and  _153
REMARK   66  A    between atoms: _153  and  _154
REMARK   67  A    between atoms: _156  and  _158
REMARK   68  A    between atoms: _158  and  _159
REMARK   69  A    between atoms: _158  and  _161
REMARK   70  A    between atoms: _161  and  _162
REMARK   71  A    between atoms: _165  and  _167
REMARK   72  A    between atoms: _167  and  _168
REMARK   73  A    between atoms: _167  and  _170
REMARK   74  A    between atoms: _173  and  _175
REMARK   75  A    between atoms: _175  and  _176
REMARK   76  A    between atoms: _175  and  _178
REMARK   77  A    between atoms: _178  and  _179
REMARK   78  A    between atoms: _183  and  _184
REMARK   79  A    between atoms: _189  and  _191
REMARK   80  A    between atoms: _191  and  _192
REMARK   81  A    between atoms: _191  and  _194
REMARK   82  A    between atoms: _194  and  _195
REMARK   83  A    between atoms: _199  and  _200
REMARK   84  A    between atoms: _205  and  _207
REMARK   85  A    between atoms: _207  and  _208
REMARK   86  A    between atoms: _207  and  _210
REMARK   87  A    between atoms: _213  and  _215
REMARK   88  A    between atoms: _215  and  _216
REMARK   89  A    between atoms: _215  and  _218
REMARK   90  A    between atoms: _218  and  _219
REMARK   91  A    between atoms: _224  and  _226
REMARK   92  A    between atoms: _226  and  _227
REMARK   93  A    between atoms: _226  and  _229
REMARK   94  A    between atoms: _229  and  _230
REMARK   95  A    between atoms: _233  and  _235
REMARK   96  A    between atoms: _235  and  _236
REMARK   97  A    between atoms: _235  and  _238
REMARK   98  A    between atoms: _238  and  _239
REMARK   99  A    between atoms: _242  and  _244
REMARK  100  A    between atoms: _244  and  _245
REMARK  101  A    between atoms: _247  and  _249
REMARK  102  A    between atoms: _249  and  _250
REMARK  103  A    between atoms: _249  and  _252
REMARK  104  A    between atoms: _252  and  _253
REMARK  105  A    between atoms: _253  and  _254
REMARK  106  A    between atoms: _254  and  _255
REMARK  107  A    between atoms: _264  and  _266
REMARK  108  A    between atoms: _266  and  _267
REMARK  109  A    between atoms: _266  and  _269
REMARK  110  A    between atoms: _269  and  _270
REMARK  111  A    between atoms: _275  and  _277
REMARK  112  A    between atoms: _277  and  _278
REMARK  113  A    between atoms: _277  and  _280
REMARK  114  A    between atoms: _280  and  _281
REMARK  115  A    between atoms: _281  and  _282
REMARK  116  A    between atoms: _282  and  _283
REMARK  117  A    between atoms: _292  and  _294
REMARK  118  A    between atoms: _294  and  _295
REMARK  119  A    between atoms: _294  and  _297
REMARK  120  A    between atoms: _297  and  _298
REMARK  121  A    between atoms: _301  and  _303
REMARK  122  A    between atoms: _303  and  _304
REMARK  123  A    between atoms: _303  and  _306
REMARK  124  A    between atoms: _306  and  _307
REMARK  125  A    between atoms: _310  and  _312
REMARK  126  A    between atoms: _312  and  _313
REMARK  127  A    between atoms: _312  and  _315
REMARK  128  A    between atoms: _315  and  _316
REMARK  129  A    between atoms: _319  and  _321
REMARK  130  A    between atoms: _321  and  _322
REMARK  131  A    between atoms: _321  and  _324
REMARK  132  A    between atoms: _324  and  _325
REMARK  133  A    between atoms: _328  and  _330
REMARK  134  A    between atoms: _330  and  _331
REMARK  135  A    between atoms: _333  and  _335
REMARK  136  A    between atoms: _335  and  _336
REMARK  137  A    between atoms: _339  and  _341
REMARK  138  A    between atoms: _341  and  _342
REMARK  139  A    between atoms: _341  and  _344
REMARK  140  A    between atoms: _344  and  _345
REMARK  141  A    between atoms: _348  and  _350
REMARK  142  A    between atoms: _350  and  _351
REMARK  143  A    between atoms: _350  and  _353
REMARK  144  A    between atoms: _353  and  _354
REMARK  145  A    between atoms: _357  and  _359
REMARK  146  A    between atoms: _359  and  _360
REMARK  147  A    between atoms: _359  and  _362
REMARK  148  A    between atoms: _362  and  _363
REMARK  149  A    between atoms: _366  and  _368
REMARK  150  A    between atoms: _368  and  _369
REMARK  151  A    between atoms: _368  and  _371
REMARK  152  A    between atoms: _374  and  _376
REMARK  153  A    between atoms: _376  and  _377
REMARK  154  A    between atoms: _376  and  _379
REMARK  155  A    between atoms: _379  and  _380
REMARK  156  A    between atoms: _380  and  _381
REMARK  157  A    between atoms: _381  and  _382
REMARK  158  A    between atoms: _382  and  _383
REMARK  159  A    between atoms: _387  and  _389
REMARK  160  A    between atoms: _389  and  _390
REMARK  161  A    between atoms: _389  and  _392
REMARK  162  A    between atoms: _392  and  _393
REMARK  163  A    between atoms: _393  and  _394
REMARK  164  A    between atoms: _396  and  _398
REMARK  165  A    between atoms: _398  and  _399
REMARK  166  A    between atoms: _398  and  _401
REMARK  167  A    between atoms: _401  and  _402
REMARK  168  A    between atoms: _405  and  _407
REMARK  169  A    between atoms: _407  and  _408
REMARK  170  A    between atoms: _410  and  _412
REMARK  171  A    between atoms: _412  and  _413
REMARK  172  A    between atoms: _415  and  _417
REMARK  173  A    between atoms: _417  and  _418
REMARK  174  A    between atoms: _417  and  _420
REMARK  175  A    between atoms: _420  and  _421
REMARK  176  A    between atoms: _424  and  _426
REMARK  177  A    between atoms: _426  and  _427
REMARK  178  A    between atoms: _429  and  _431
REMARK  179  A    between atoms: _431  and  _432
REMARK  180  A    between atoms: _434  and  _436
REMARK  181  A    between atoms: _436  and  _437
REMARK  182  A    between atoms: _436  and  _439
REMARK  183  A    between atoms: _439  and  _440
REMARK  184  A    between atoms: _446  and  _448
REMARK  185  A    between atoms: _448  and  _449
REMARK  186  A    between atoms: _448  and  _451
REMARK  187  A    between atoms: _451  and  _452
REMARK  188  A    between atoms: _455  and  _457
REMARK  189  A    between atoms: _457  and  _458
REMARK  190  A    between atoms: _457  and  _460
REMARK  191  A    between atoms: _460  and  _461
REMARK  192  A    between atoms: _464  and  _466
REMARK  193  A    between atoms: _466  and  _467
REMARK  194  A    between atoms: _466  and  _469
REMARK  195  A    between atoms: _469  and  _470
REMARK  196  A    between atoms: _474  and  _475
REMARK  197  A    between atoms: _480  and  _482
REMARK  198  A    between atoms: _482  and  _483
REMARK  199  A    between atoms: _482  and  _485
REMARK  200  A    between atoms: _488  and  _490
REMARK  201  A    between atoms: _490  and  _491
REMARK  202  A    between atoms: _490  and  _493
REMARK  203  A    between atoms: _493  and  _494
REMARK  204  A    between atoms: _499  and  _501
REMARK  205  A    between atoms: _501  and  _502
REMARK  206  A    between atoms: _501  and  _504
REMARK  207  A    between atoms: _504  and  _505
REMARK  208  A    between atoms: _508  and  _510
REMARK  209  A    between atoms: _510  and  _511
REMARK  210  A    between atoms: _510  and  _513
REMARK  211  A    between atoms: _513  and  _514
REMARK  212  A    between atoms: _517  and  _519
REMARK  213  A    between atoms: _519  and  _520
REMARK  214  A    between atoms: _522  and  _524
REMARK  215  A    between atoms: _524  and  _525
REMARK  216  A    between atoms: _524  and  _527
REMARK  217  A    between atoms: _527  and  _528
REMARK  218  A    between atoms: _528  and  _529
REMARK  219  A    between atoms: _529  and  _530
REMARK  220  A    between atoms: _539  and  _541
REMARK  221  A    between atoms: _541  and  _542
REMARK  222  A    between atoms: _541  and  _544
REMARK  223  A    between atoms: _544  and  _545
REMARK                            x       y       z     vdW  Elec       q    Type
REMARK                         _______ _______ _______ _____ _____    ______ ____
ROOT
ATOM      1  C   ALA A   6      23.813  24.099  14.812  0.00  0.00    +0.241 C 
ATOM      2  O   ALA A   6      24.342  23.475  15.741  0.00  0.00    -0.273 OA
ATOM      3  N   ASP A   7      23.761  23.623  13.571  0.00  0.00    -0.297 N 
ATOM      4  H   ASP A   7      23.244  24.157  12.843  0.00  0.00    +0.150 HD
ENDROOT
BRANCH   1   5
ATOM      5  CA  ALA A   6      23.186  25.485  15.059  0.00  0.00    +0.149 C 
ATOM      6  CB  ALA A   6      24.244  26.490  15.497  0.00  0.00    +0.031 C 
BRANCH   5   8
ATOM      7  C   GLY A   5      20.851  25.446  15.757  0.00  0.00    +0.243 C 
ATOM      8  N   ALA A   6      22.139  25.407  16.070  0.00  0.00    -0.297 N 
ATOM      9  H   ALA A   6      22.411  25.318  17.070  0.00  0.00    +0.150 HD
ATOM     10  O   GLY A   5      20.452  25.613  14.604  0.00  0.00    -0.273 OA
BRANCH   7  11
ATOM     11  CA  GLY A   5      19.868  25.252  16.903  0.00  0.00    +0.176 C 
BRANCH  11  13
ATOM     12  C   THR A   4      20.871  23.823  18.636  0.00  0.00    +0.243 C 
ATOM     13  N   GLY A   5      20.476  25.028  18.220  0.00  0.00    -0.295 N 
ATOM     14  H   GLY A   5      20.604  25.842  18.855  0.00  0.00    +0.150 HD
ATOM     15  O   THR A   4      20.680  22.793  17.984  0.00  0.00    -0.273 OA
BRANCH  12  16
ATOM     16  CA  THR A   4      21.602  23.753  19.975  0.00  0.00    +0.176 C 
BRANCH  16  18
ATOM     17  C   ASP A   3      23.115  25.651  19.763  0.00  0.00    +0.241 C 
ATOM     18  N   THR A   4      22.114  25.045  20.398  0.00  0.00    -0.295 N 
ATOM     19  H   THR A   4      21.685  25.511  21.223  0.00  0.00    +0.150 HD
ATOM     20  O   ASP A   3      23.691  25.157  18.791  0.00  0.00    -0.273 OA
BRANCH  17  21
ATOM     21  CA  ASP A   3      23.530  27.004  20.316  0.00  0.00    +0.160 C 
BRANCH  21  24
ATOM     22  C   LEU A   2      24.639  27.335  22.457  0.00  0.00    +0.241 C 
ATOM     23  O   LEU A   2      23.593  27.694  22.998  0.00  0.00    -0.273 OA
ATOM     24  N   ASP A   3      24.667  26.848  21.227  0.00  0.00    -0.297 N 
ATOM     25  H   ASP A   3      25.515  26.343  20.899  0.00  0.00    +0.150 HD
BRANCH  22  26
ATOM     26  CA  LEU A   2      25.989  27.452  23.167  0.00  0.00    +0.149 C 
BRANCH  26  28
ATOM     27  C   LEU A   1      26.794  29.578  22.277  0.00  0.00    +0.238 C 
ATOM     28  N   LEU A   2      26.333  28.867  23.306  0.00  0.00    -0.297 N 
ATOM     29  H   LEU A   2      26.215  29.329  24.230  0.00  0.00    +0.150 HD
ATOM     30  O   LEU A   1      27.072  29.078  21.169  0.00  0.00    -0.274 OA
BRANCH  27  31
ATOM     31  CA  LEU A   1      26.982  31.074  22.525  0.00  0.00    +0.145 C 
BRANCH  31  32
ATOM     32  N   LEU A   1      28.330  31.488  22.155  0.00  0.00    -0.238 NA
ATOM     33  H   LEU A   1      28.515  31.706  21.155  0.00  0.00    +0.142 HD
ENDBRANCH  31  32
BRANCH  31  34
ATOM     34  CB  LEU A   1      26.006  31.851  21.640  0.00  0.00    +0.026 C 
BRANCH  34  35
ATOM     35  CG  LEU A   1      24.495  31.766  21.849  0.00  0.00    +0.002 C 
ATOM     36  CD2 LEU A   1      24.119  32.456  23.127  0.00  0.00    +0.000 C 
ATOM     37  CD1 LEU A   1      23.799  32.435  20.660  0.00  0.00    +0.000 C 
ENDBRANCH  34  35
ENDBRANCH  31  34
ENDBRANCH  27  31
ENDBRANCH  26  28
BRANCH  26  38
ATOM     38  CB  LEU A   2      25.957  26.747  24.537  0.00  0.00    +0.029 C 
BRANCH  38  39
ATOM     39  CG  LEU A   2      27.214  26.914  25.390  0.00  0.00    +0.002 C 
ATOM     40  CD2 LEU A   2      27.082  26.209  26.743  0.00  0.00    +0.000 C 
ATOM     41  CD1 LEU A   2      28.419  26.393  24.621  0.00  0.00    +0.000 C 
ENDBRANCH  38  39
ENDBRANCH  26  38
ENDBRANCH  22  26
ENDBRANCH  21  24
BRANCH  21  42
ATOM     42  CB  ASP A   3      23.932  27.974  19.196  0.00  0.00    +0.143 C 
BRANCH  42  43
ATOM     43  CG  ASP A   3      22.789  28.334  18.283  0.00  0.00    +0.367 C 
ATOM     44  OD2 ASP A   3      21.666  27.814  18.454  0.00  0.00    -0.246 OA
ATOM     45  OD1 ASP A   3      23.037  29.145  17.376  0.00  0.00    -0.246 OA
ENDBRANCH  42  43
ENDBRANCH  21  42
ENDBRANCH  17  21
ENDBRANCH  16  18
BRANCH  16  46
ATOM     46  CB  THR A   4      20.676  23.131  21.042  0.00  0.00    +0.137 C 
ATOM     47  CG2 THR A   4      21.450  22.877  22.352  0.00  0.00    +0.034 C 
BRANCH  46  48
ATOM     48  OG1 THR A   4      19.544  23.977  21.294  0.00  0.00    -0.382 OA
ATOM     49  HG1 THR A   4      19.030  24.097  20.456  0.00  0.00    +0.210 HD
ENDBRANCH  46  48
ENDBRANCH  16  46
ENDBRANCH  12  16
ENDBRANCH  11  13
ENDBRANCH   7  11
ENDBRANCH   5   8
ENDBRANCH   1   5
BRANCH   3  50
ATOM     50  CA  ASP A   7      24.417  22.360  13.204  0.00  0.00    +0.160 C 
BRANCH  50  51
ATOM     51  C   ASP A   7      25.933  22.527  13.309  0.00  0.00    +0.241 C 
ATOM     52  O   ASP A   7      26.638  21.598  13.713  0.00  0.00    -0.273 OA
ATOM     53  N   ASP A   8      26.415  23.718  12.951  0.00  0.00    -0.297 N 
ATOM     54  H   ASP A   8      25.744  24.485  12.745  0.00  0.00    +0.150 HD
BRANCH  53  55
ATOM     55  CA  ASP A   8      27.845  23.991  12.836  0.00  0.00    +0.160 C 
BRANCH  55  56
ATOM     56  C   ASP A   8      28.317  25.016  13.857  0.00  0.00    +0.241 C 
ATOM     57  O   ASP A   8      27.509  25.733  14.456  0.00  0.00    -0.273 OA
ATOM     58  N   THR A   9      29.637  25.093  14.001  0.00  0.00    -0.295 N 
ATOM     59  H   THR A   9      30.227  24.427  13.463  0.00  0.00    +0.150 HD
BRANCH  58  60
ATOM     60  CA  THR A   9      30.309  26.059  14.872  0.00  0.00    +0.176 C 
BRANCH  60  61
ATOM     61  C   THR A   9      30.859  27.184  13.992  0.00  0.00    +0.243 C 
ATOM     62  N   VAL A  10      30.448  28.419  14.289  0.00  0.00    -0.297 N 
ATOM     63  H   VAL A  10      29.889  28.575  15.152  0.00  0.00    +0.150 HD
ATOM     64  O   THR A   9      31.597  26.929  13.023  0.00  0.00    -0.273 OA
BRANCH  62  65
ATOM     65  CA  VAL A  10      30.768  29.564  13.422  0.00  0.00    +0.149 C 
BRANCH  65  66
ATOM     66  C   VAL A  10      31.284  30.703  14.296  0.00  0.00    +0.241 C 
ATOM     67  O   VAL A  10      30.588  31.143  15.202  0.00  0.00    -0.273 OA
ATOM     68  N   LEU A  11      32.493  31.181  14.006  0.00  0.00    -0.298 N 
ATOM     69  H   LEU A  11      33.040  30.741  13.238  0.00  0.00    +0.150 HD
BRANCH  68  70
ATOM     70  CA  LEU A  11      33.068  32.297  14.730  0.00  0.00    +0.137 C 
BRANCH  70  71
ATOM     71  C   LEU A  11      33.156  33.539  13.859  0.00  0.00    +0.227 C 
ATOM     72  O   LEU A  11      33.305  33.445  12.651  0.00  0.00    -0.286 OA
ENDBRANCH  70  71
BRANCH  70  73
ATOM     73  CB  LEU A  11      34.452  31.927  15.233  0.00  0.00    +0.028 C 
BRANCH  73  74
ATOM     74  CG  LEU A  11      34.457  30.677  16.104  0.00  0.00    +0.002 C 
ATOM     75  CD2 LEU A  11      33.604  30.880  17.348  0.00  0.00    +0.000 C 
ATOM     76  CD1 LEU A  11      35.885  30.335  16.476  0.00  0.00    +0.000 C 
ENDBRANCH  73  74
ENDBRANCH  70  73
ENDBRANCH  68  70
ENDBRANCH  65  66
BRANCH  65  77
ATOM     77  CB  VAL A  10      29.540  30.080  12.629  0.00  0.00    +0.027 C 
ATOM     78  CG2 VAL A  10      28.739  28.946  12.081  0.00  0.00    +0.002 C 
ATOM     79  CG1 VAL A  10      29.976  30.989  11.498  0.00  0.00    +0.002 C 
ENDBRANCH  65  77
ENDBRANCH  62  65
ENDBRANCH  60  61
BRANCH  60  80
ATOM     80  CB  THR A   9      31.447  25.371  15.672  0.00  0.00    +0.137 C 
ATOM     81  CG2 THR A   9      32.364  26.377  16.337  0.00  0.00    +0.034 C 
BRANCH  80  82
ATOM     82  OG1 THR A   9      30.879  24.515  16.675  0.00  0.00    -0.382 OA
ATOM     83  HG1 THR A   9      30.318  23.825  16.239  0.00  0.00    +0.210 HD
ENDBRANCH  80  82
ENDBRANCH  60  80
ENDBRANCH  58  60
ENDBRANCH  55  56
BRANCH  55  84
ATOM     84  CB  ASP A   8      28.174  24.519  11.445  0.00  0.00    +0.143 C 
BRANCH  84  85
ATOM     85  CG  ASP A   8      27.622  23.643  10.347  0.00  0.00    +0.367 C 
ATOM     86  OD2 ASP A   8      27.973  22.452  10.297  0.00  0.00    -0.246 OA
ATOM     87  OD1 ASP A   8      26.846  24.156   9.517  0.00  0.00    -0.246 OA
ENDBRANCH  84  85
ENDBRANCH  55  84
ENDBRANCH  53  55
ENDBRANCH  50  51
BRANCH  50  88
ATOM     88  CB  ASP A   7      24.114  21.935  11.761  0.00  0.00    +0.143 C 
BRANCH  88  89
ATOM     89  CG  ASP A   7      22.627  21.925  11.418  0.00  0.00    +0.367 C 
ATOM     90  OD2 ASP A   7      21.775  21.520  12.227  0.00  0.00    -0.246 OA
ATOM     91  OD1 ASP A   7      22.318  22.249  10.264  0.00  0.00    -0.246 OA
ENDBRANCH  88  89
ENDBRANCH  50  88
ENDBRANCH   3  50
TORSDOF 39
REMARK  Name = ../refined-set-2016/2qi0/2qi0_pocket.pdb
REMARK  223 active torsions:
REMARK  status: ('A' for Active; 'I' for Inactive)
REMARK    1  A    between atoms: _1  and  _3
REMARK    2  A    between atoms: _3  and  _4
REMARK    3  A    between atoms: _3  and  _6
REMARK    4  A    between atoms: _6  and  _7
REMARK    5  A    between atoms: _7  and  _8
REMARK    6  A    between atoms: _8  and  _9
REMARK    7  A    between atoms: _18  and  _20
REMARK    8  A    between atoms: _20  and  _21
REMARK    9  A    between atoms: _20  and  _23
REMARK   10  A    between atoms: _23  and  _24
REMARK   11  A    between atoms: _27  and  _29
REMARK   12  A    between atoms: _29  and  _30
REMARK   13  A    between atoms: _29  and  _32
REMARK   14  A    between atoms: _32  and  _33
REMARK   15  A    between atoms: _36  and  _38
REMARK   16  A    between atoms: _38  and  _39
REMARK   17  A    between atoms: _38  and  _41
REMARK   18  A    between atoms: _41  and  _42
REMARK   19  A    between atoms: _45  and  _47
REMARK   20  A    between atoms: _47  and  _48
REMARK   21  A    between atoms: _47  and  _50
REMARK   22  A    between atoms: _50  and  _51
REMARK   23  A    between atoms: _54  and  _56
REMARK   24  A    between atoms: _56  and  _57
REMARK   25  A    between atoms: _59  and  _61
REMARK   26  A    between atoms: _61  and  _62
REMARK   27  A    between atoms: _65  and  _67
REMARK   28  A    between atoms: _67  and  _68
REMARK   29  A    between atoms: _67  and  _70
REMARK   30  A    between atoms: _70  and  _71
REMARK   31  A    between atoms: _74  and  _76
REMARK   32  A    between atoms: _76  and  _77
REMARK   33  A    between atoms: _76  and  _79
REMARK   34  A    between atoms: _79  and  _80
REMARK   35  A    between atoms: _83  and  _85
REMARK   36  A    between atoms: _85  and  _86
REMARK   37  A    between atoms: _85  and  _88
REMARK   38  A    between atoms: _88  and  _89
REMARK   39  A    between atoms: _92  and  _94
REMARK   40  A    between atoms: _94  and  _95
REMARK   41  A    between atoms: _94  and  _97
REMARK   42  A    between atoms: _100  and  _102
REMARK   43  A    between atoms: _102  and  _103
REMARK   44  A    between atoms: _102  and  _105
REMARK   45  A    between atoms: _105  and  _106
REMARK   46  A    between atoms: _109  and  _111
REMARK   47  A    between atoms: _111  and  _112
REMARK   48  A    between atoms: _111  and  _114
REMARK   49  A    between atoms: _114  and  _115
REMARK   50  A    between atoms: _115  and  _116
REMARK   51  A    between atoms: _118  and  _120
REMARK   52  A    between atoms: _120  and  _121
REMARK   53  A    between atoms: _120  and  _123
REMARK   54  A    between atoms: _123  and  _124
REMARK   55  A    between atoms: _127  and  _129
REMARK   56  A    between atoms: _129  and  _130
REMARK   57  A    between atoms: _132  and  _134
REMARK   58  A    between atoms: _134  and  _135
REMARK   59  A    between atoms: _137  and  _139
REMARK   60  A    between atoms: _139  and  _140
REMARK   61  A    between atoms: _139  and  _142
REMARK   62  A    between atoms: _142  and  _143
REMARK   63  A    between atoms: _146  and  _148
REMARK   64  A    between atoms: _148  and  _149
REMARK   65  A    between atoms: _151  and  _153
REMARK   66  A    between atoms: _153  and  _154
REMARK   67  A    between atoms: _156  and  _158
REMARK   68  A    between atoms: _158  and  _159
REMARK   69  A    between atoms: _158  and  _161
REMARK   70  A    between atoms: _161  and  _162
REMARK   71  A    between atoms: _165  and  _167
REMARK   72  A    between atoms: _167  and  _168
REMARK   73  A    between atoms: _167  and  _170
REMARK   74  A    between atoms: _173  and  _175
REMARK   75  A    between atoms: _175  and  _176
REMARK   76  A    between atoms: _175  and  _178
REMARK   77  A    between atoms: _178  and  _179
REMARK   78  A    between atoms: _183  and  _184
REMARK   79  A    between atoms: _189  and  _191
REMARK   80  A    between atoms: _191  and  _192
REMARK   81  A    between atoms: _191  and  _194
REMARK   82  A    between atoms: _194  and  _195
REMARK   83  A    between atoms: _199  and  _200
REMARK   84  A    between atoms: _205  and  _207
REMARK   85  A    between atoms: _207  and  _208
REMARK   86  A    between atoms: _207  and  _210
REMARK   87  A    between atoms: _213  and  _215
REMARK   88  A    between atoms: _215  and  _216
REMARK   89  A    between atoms: _215  and  _218
REMARK   90  A    between atoms: _218  and  _219
REMARK   91  A    between atoms: _224  and  _226
REMARK   92  A    between atoms: _226  and  _227
REMARK   93  A    between atoms: _226  and  _229
REMARK   94  A    between atoms: _229  and  _230
REMARK   95  A    between atoms: _233  and  _235
REMARK   96  A    between atoms: _235  and  _236
REMARK   97  A    between atoms: _235  and  _238
REMARK   98  A    between atoms: _238  and  _239
REMARK   99  A    between atoms: _242  and  _244
REMARK  100  A    between atoms: _244  and  _245
REMARK  101  A    between atoms: _247  and  _249
REMARK  102  A    between atoms: _249  and  _250
REMARK  103  A    between atoms: _249  and  _252
REMARK  104  A    between atoms: _252  and  _253
REMARK  105  A    between atoms: _253  and  _254
REMARK  106  A    between atoms: _254  and  _255
REMARK  107  A    between atoms: _264  and  _266
REMARK  108  A    between atoms: _266  and  _267
REMARK  109  A    between atoms: _266  and  _269
REMARK  110  A    between atoms: _269  and  _270
REMARK  111  A    between atoms: _275  and  _277
REMARK  112  A    between atoms: _277  and  _278
REMARK  113  A    between atoms: _277  and  _280
REMARK  114  A    between atoms: _280  and  _281
REMARK  115  A    between atoms: _281  and  _282
REMARK  116  A    between atoms: _282  and  _283
REMARK  117  A    between atoms: _292  and  _294
REMARK  118  A    between atoms: _294  and  _295
REMARK  119  A    between atoms: _294  and  _297
REMARK  120  A    between atoms: _297  and  _298
REMARK  121  A    between atoms: _301  and  _303
REMARK  122  A    between atoms: _303  and  _304
REMARK  123  A    between atoms: _303  and  _306
REMARK  124  A    between atoms: _306  and  _307
REMARK  125  A    between atoms: _310  and  _312
REMARK  126  A    between atoms: _312  and  _313
REMARK  127  A    between atoms: _312  and  _315
REMARK  128  A    between atoms: _315  and  _316
REMARK  129  A    between atoms: _319  and  _321
REMARK  130  A    between atoms: _321  and  _322
REMARK  131  A    between atoms: _321  and  _324
REMARK  132  A    between atoms: _324  and  _325
REMARK  133  A    between atoms: _328  and  _330
REMARK  134  A    between atoms: _330  and  _331
REMARK  135  A    between atoms: _333  and  _335
REMARK  136  A    between atoms: _335  and  _336
REMARK  137  A    between atoms: _339  and  _341
REMARK  138  A    between atoms: _341  and  _342
REMARK  139  A    between atoms: _341  and  _344
REMARK  140  A    between atoms: _344  and  _345
REMARK  141  A    between atoms: _348  and  _350
REMARK  142  A    between atoms: _350  and  _351
REMARK  143  A    between atoms: _350  and  _353
REMARK  144  A    between atoms: _353  and  _354
REMARK  145  A    between atoms: _357  and  _359
REMARK  146  A    between atoms: _359  and  _360
REMARK  147  A    between atoms: _359  and  _362
REMARK  148  A    between atoms: _362  and  _363
REMARK  149  A    between atoms: _366  and  _368
REMARK  150  A    between atoms: _368  and  _369
REMARK  151  A    between atoms: _368  and  _371
REMARK  152  A    between atoms: _374  and  _376
REMARK  153  A    between atoms: _376  and  _377
REMARK  154  A    between atoms: _376  and  _379
REMARK  155  A    between atoms: _379  and  _380
REMARK  156  A    between atoms: _380  and  _381
REMARK  157  A    between atoms: _381  and  _382
REMARK  158  A    between atoms: _382  and  _383
REMARK  159  A    between atoms: _387  and  _389
REMARK  160  A    between atoms: _389  and  _390
REMARK  161  A    between atoms: _389  and  _392
REMARK  162  A    between atoms: _392  and  _393
REMARK  163  A    between atoms: _393  and  _394
REMARK  164  A    between atoms: _396  and  _398
REMARK  165  A    between atoms: _398  and  _399
REMARK  166  A    between atoms: _398  and  _401
REMARK  167  A    between atoms: _401  and  _402
REMARK  168  A    between atoms: _405  and  _407
REMARK  169  A    between atoms: _407  and  _408
REMARK  170  A    between atoms: _410  and  _412
REMARK  171  A    between atoms: _412  and  _413
REMARK  172  A    between atoms: _415  and  _417
REMARK  173  A    between atoms: _417  and  _418
REMARK  174  A    between atoms: _417  and  _420
REMARK  175  A    between atoms: _420  and  _421
REMARK  176  A    between atoms: _424  and  _426
REMARK  177  A    between atoms: _426  and  _427
REMARK  178  A    between atoms: _429  and  _431
REMARK  179  A    between atoms: _431  and  _432
REMARK  180  A    between atoms: _434  and  _436
REMARK  181  A    between atoms: _436  and  _437
REMARK  182  A    between atoms: _436  and  _439
REMARK  183  A    between atoms: _439  and  _440
REMARK  184  A    between atoms: _446  and  _448
REMARK  185  A    between atoms: _448  and  _449
REMARK  186  A    between atoms: _448  and  _451
REMARK  187  A    between atoms: _451  and  _452
REMARK  188  A    between atoms: _455  and  _457
REMARK  189  A    between atoms: _457  and  _458
REMARK  190  A    between atoms: _457  and  _460
REMARK  191  A    between atoms: _460  and  _461
REMARK  192  A    between atoms: _464  and  _466
REMARK  193  A    between atoms: _466  and  _467
REMARK  194  A    between atoms: _466  and  _469
REMARK  195  A    between atoms: _469  and  _470
REMARK  196  A    between atoms: _474  and  _475
REMARK  197  A    between atoms: _480  and  _482
REMARK  198  A    between atoms: _482  and  _483
REMARK  199  A    between atoms: _482  and  _485
REMARK  200  A    between atoms: _488  and  _490
REMARK  201  A    between atoms: _490  and  _491
REMARK  202  A    between atoms: _490  and  _493
REMARK  203  A    between atoms: _493  and  _494
REMARK  204  A    between atoms: _499  and  _501
REMARK  205  A    between atoms: _501  and  _502
REMARK  206  A    between atoms: _501  and  _504
REMARK  207  A    between atoms: _504  and  _505
REMARK  208  A    between atoms: _508  and  _510
REMARK  209  A    between atoms: _510  and  _511
REMARK  210  A    between atoms: _510  and  _513
REMARK  211  A    between atoms: _513  and  _514
REMARK  212  A    between atoms: _517  and  _519
REMARK  213  A    between atoms: _519  and  _520
REMARK  214  A    between atoms: _522  and  _524
REMARK  215  A    between atoms: _524  and  _525
REMARK  216  A    between atoms: _524  and  _527
REMARK  217  A    between atoms: _527  and  _528
REMARK  218  A    between atoms: _528  and  _529
REMARK  219  A    between atoms: _529  and  _530
REMARK  220  A    between atoms: _539  and  _541
REMARK  221  A    between atoms: _541  and  _542
REMARK  222  A    between atoms: _541  and  _544
REMARK  223  A    between atoms: _544  and  _545
REMARK                            x       y       z     vdW  Elec       q    Type
REMARK                         _______ _______ _______ _____ _____    ______ ____
ROOT
ATOM      1  C   GLY A   3      21.543  29.192   7.196  0.00  0.00    +0.243 C 
ATOM      2  O   GLY A   3      21.643  28.258   7.992  0.00  0.00    -0.273 OA
ATOM      3  N   GLY A   4      20.943  30.337   7.488  0.00  0.00    -0.295 N 
ATOM      4  H   GLY A   4      20.995  31.121   6.807  0.00  0.00    +0.150 HD
ENDROOT
BRANCH   3   5
ATOM      5  CA  GLY A   4      20.215  30.531   8.729  0.00  0.00    +0.176 C 
BRANCH   5   6
ATOM      6  C   GLY A   4      18.915  31.237   8.438  0.00  0.00    +0.243 C 
ATOM      7  N   ILE A   5      18.428  31.965   9.432  0.00  0.00    -0.297 N 
ATOM      8  H   ILE A   5      19.014  32.144  10.273  0.00  0.00    +0.150 HD
ATOM      9  O   GLY A   4      18.391  31.167   7.320  0.00  0.00    -0.273 OA
BRANCH   7  10
ATOM     10  CA  ILE A   5      17.091  32.514   9.362  0.00  0.00    +0.149 C 
BRANCH  10  11
ATOM     11  C   ILE A   5      16.998  33.563   8.262  0.00  0.00    +0.241 C 
ATOM     12  N   GLY A   6      18.057  34.342   8.077  0.00  0.00    -0.295 N 
ATOM     13  H   GLY A   6      18.927  34.163   8.618  0.00  0.00    +0.150 HD
ATOM     14  O   ILE A   5      15.999  33.610   7.545  0.00  0.00    -0.273 OA
BRANCH  12  15
ATOM     15  CA  GLY A   6      18.015  35.450   7.121  0.00  0.00    +0.176 C 
BRANCH  15  16
ATOM     16  C   GLY A   6      18.551  35.149   5.731  0.00  0.00    +0.243 C 
ATOM     17  N   GLY A   7      18.938  33.902   5.475  0.00  0.00    -0.296 N 
ATOM     18  H   GLY A   7      18.809  33.183   6.215  0.00  0.00    +0.150 HD
ATOM     19  O   GLY A   6      18.595  36.041   4.898  0.00  0.00    -0.273 OA
BRANCH  17  20
ATOM     20  CA  GLY A   7      19.534  33.493   4.207  0.00  0.00    +0.163 C 
BRANCH  20  21
ATOM     21  C   GLY A   7      20.900  32.842   4.367  0.00  0.00    +0.229 C 
ATOM     22  O   GLY A   7      21.257  32.363   5.449  0.00  0.00    -0.286 OA
ENDBRANCH  20  21
ENDBRANCH  17  20
ENDBRANCH  15  16
ENDBRANCH  12  15
ENDBRANCH  10  11
BRANCH  10  23
ATOM     23  CB  ILE A   5      16.630  33.080  10.722  0.00  0.00    +0.027 C 
ATOM     24  CG2 ILE A   5      17.024  34.549  10.878  0.00  0.00    +0.002 C 
BRANCH  23  25
ATOM     25  CG1 ILE A   5      15.122  32.901  10.885  0.00  0.00    +0.002 C 
ATOM     26  CD1 ILE A   5      14.639  33.122  12.304  0.00  0.00    +0.000 C 
ENDBRANCH  23  25
ENDBRANCH  10  23
ENDBRANCH   7  10
ENDBRANCH   5   6
ENDBRANCH   3   5
BRANCH   1  27
ATOM     27  CA  GLY A   3      22.154  29.120   5.812  0.00  0.00    +0.176 C 
BRANCH  27  29
ATOM     28  C   ILE A   2      24.561  28.986   5.441  0.00  0.00    +0.241 C 
ATOM     29  N   GLY A   3      23.425  28.433   5.845  0.00  0.00    -0.295 N 
ATOM     30  H   GLY A   3      23.450  27.457   6.203  0.00  0.00    +0.150 HD
ATOM     31  O   ILE A   2      24.677  30.177   5.139  0.00  0.00    -0.273 OA
BRANCH  28  32
ATOM     32  CA  ILE A   2      25.755  28.035   5.420  0.00  0.00    +0.148 C 
BRANCH  32  34
ATOM     33  C   MET A   1      27.259  27.688   3.525  0.00  0.00    +0.238 C 
ATOM     34  N   ILE A   2      26.769  28.491   4.468  0.00  0.00    -0.297 N 
ATOM     35  H   ILE A   2      27.117  29.469   4.530  0.00  0.00    +0.150 HD
ATOM     36  O   MET A   1      27.045  26.487   3.498  0.00  0.00    -0.274 OA
BRANCH  33  37
ATOM     37  CA  MET A   1      28.162  28.324   2.486  0.00  0.00    +0.146 C 
BRANCH  37  38
ATOM     38  N   MET A   1      29.308  27.477   2.241  0.00  0.00    -0.238 NA
ATOM     39  H   MET A   1      29.153  26.482   1.981  0.00  0.00    +0.142 HD
ENDBRANCH  37  38
BRANCH  37  40
ATOM     40  CB  MET A   1      27.408  28.551   1.177  0.00  0.00    +0.038 C 
BRANCH  40  41
ATOM     41  CG  MET A   1      28.185  29.428   0.206  0.00  0.00    +0.060 C 
BRANCH  41  42
ATOM     42  SD  MET A   1      27.341  29.757  -1.348  0.00  0.00    -0.139 S 
ATOM     43  CE  MET A   1      25.884  30.627  -0.771  0.00  0.00    +0.069 C 
ENDBRANCH  41  42
ENDBRANCH  40  41
ENDBRANCH  37  40
ENDBRANCH  33  37
ENDBRANCH  32  34
BRANCH  32  44
ATOM     44  CB  ILE A   2      26.282  27.918   6.868  0.00  0.00    +0.027 C 
ATOM     45  CG2 ILE A   2      27.276  26.768   7.001  0.00  0.00    +0.002 C 
BRANCH  44  46
ATOM     46  CG1 ILE A   2      26.868  29.250   7.357  0.00  0.00    +0.002 C 
ATOM     47  CD1 ILE A   2      27.153  29.272   8.855  0.00  0.00    +0.000 C 
ENDBRANCH  44  46
ENDBRANCH  32  44
ENDBRANCH  28  32
ENDBRANCH  27  29
ENDBRANCH   1  27
TORSDOF 21
REMARK  Name = ../refined-set-2016/2qi0/2qi0_pocket.pdb
REMARK  223 active torsions:
REMARK  status: ('A' for Active; 'I' for Inactive)
REMARK    1  A    between atoms: _1  and  _3
REMARK    2  A    between atoms: _3  and  _4
REMARK    3  A    between atoms: _3  and  _6
REMARK    4  A    between atoms: _6  and  _7
REMARK    5  A    between atoms: _7  and  _8
REMARK    6  A    between atoms: _8  and  _9
REMARK    7  A    between atoms: _18  and  _20
REMARK    8  A    between atoms: _20  and  _21
REMARK    9  A    between atoms: _20  and  _23
REMARK   10  A    between atoms: _23  and  _24
REMARK   11  A    between atoms: _27  and  _29
REMARK   12  A    between atoms: _29  and  _30
REMARK   13  A    between atoms: _29  and  _32
REMARK   14  A    between atoms: _32  and  _33
REMARK   15  A    between atoms: _36  and  _38
REMARK   16  A    between atoms: _38  and  _39
REMARK   17  A    between atoms: _38  and  _41
REMARK   18  A    between atoms: _41  and  _42
REMARK   19  A    between atoms: _45  and  _47
REMARK   20  A    between atoms: _47  and  _48
REMARK   21  A    between atoms: _47  and  _50
REMARK   22  A    between atoms: _50  and  _51
REMARK   23  A    between atoms: _54  and  _56
REMARK   24  A    between atoms: _56  and  _57
REMARK   25  A    between atoms: _59  and  _61
REMARK   26  A    between atoms: _61  and  _62
REMARK   27  A    between atoms: _65  and  _67
REMARK   28  A    between atoms: _67  and  _68
REMARK   29  A    between atoms: _67  and  _70
REMARK   30  A    between atoms: _70  and  _71
REMARK   31  A    between atoms: _74  and  _76
REMARK   32  A    between atoms: _76  and  _77
REMARK   33  A    between atoms: _76  and  _79
REMARK   34  A    between atoms: _79  and  _80
REMARK   35  A    between atoms: _83  and  _85
REMARK   36  A    between atoms: _85  and  _86
REMARK   37  A    between atoms: _85  and  _88
REMARK   38  A    between atoms: _88  and  _89
REMARK   39  A    between atoms: _92  and  _94
REMARK   40  A    between atoms: _94  and  _95
REMARK   41  A    between atoms: _94  and  _97
REMARK   42  A    between atoms: _100  and  _102
REMARK   43  A    between atoms: _102  and  _103
REMARK   44  A    between atoms: _102  and  _105
REMARK   45  A    between atoms: _105  and  _106
REMARK   46  A    between atoms: _109  and  _111
REMARK   47  A    between atoms: _111  and  _112
REMARK   48  A    between atoms: _111  and  _114
REMARK   49  A    between atoms: _114  and  _115
REMARK   50  A    between atoms: _115  and  _116
REMARK   51  A    between atoms: _118  and  _120
REMARK   52  A    between atoms: _120  and  _121
REMARK   53  A    between atoms: _120  and  _123
REMARK   54  A    between atoms: _123  and  _124
REMARK   55  A    between atoms: _127  and  _129
REMARK   56  A    between atoms: _129  and  _130
REMARK   57  A    between atoms: _132  and  _134
REMARK   58  A    between atoms: _134  and  _135
REMARK   59  A    between atoms: _137  and  _139
REMARK   60  A    between atoms: _139  and  _140
REMARK   61  A    between atoms: _139  and  _142
REMARK   62  A    between atoms: _142  and  _143
REMARK   63  A    between atoms: _146  and  _148
REMARK   64  A    between atoms: _148  and  _149
REMARK   65  A    between atoms: _151  and  _153
REMARK   66  A    between atoms: _153  and  _154
REMARK   67  A    between atoms: _156  and  _158
REMARK   68  A    between atoms: _158  and  _159
REMARK   69  A    between atoms: _158  and  _161
REMARK   70  A    between atoms: _161  and  _162
REMARK   71  A    between atoms: _165  and  _167
REMARK   72  A    between atoms: _167  and  _168
REMARK   73  A    between atoms: _167  and  _170
REMARK   74  A    between atoms: _173  and  _175
REMARK   75  A    between atoms: _175  and  _176
REMARK   76  A    between atoms: _175  and  _178
REMARK   77  A    between atoms: _178  and  _179
REMARK   78  A    between atoms: _183  and  _184
REMARK   79  A    between atoms: _189  and  _191
REMARK   80  A    between atoms: _191  and  _192
REMARK   81  A    between atoms: _191  and  _194
REMARK   82  A    between atoms: _194  and  _195
REMARK   83  A    between atoms: _199  and  _200
REMARK   84  A    between atoms: _205  and  _207
REMARK   85  A    between atoms: _207  and  _208
REMARK   86  A    between atoms: _207  and  _210
REMARK   87  A    between atoms: _213  and  _215
REMARK   88  A    between atoms: _215  and  _216
REMARK   89  A    between atoms: _215  and  _218
REMARK   90  A    between atoms: _218  and  _219
REMARK   91  A    between atoms: _224  and  _226
REMARK   92  A    between atoms: _226  and  _227
REMARK   93  A    between atoms: _226  and  _229
REMARK   94  A    between atoms: _229  and  _230
REMARK   95  A    between atoms: _233  and  _235
REMARK   96  A    between atoms: _235  and  _236
REMARK   97  A    between atoms: _235  and  _238
REMARK   98  A    between atoms: _238  and  _239
REMARK   99  A    between atoms: _242  and  _244
REMARK  100  A    between atoms: _244  and  _245
REMARK  101  A    between atoms: _247  and  _249
REMARK  102  A    between atoms: _249  and  _250
REMARK  103  A    between atoms: _249  and  _252
REMARK  104  A    between atoms: _252  and  _253
REMARK  105  A    between atoms: _253  and  _254
REMARK  106  A    between atoms: _254  and  _255
REMARK  107  A    between atoms: _264  and  _266
REMARK  108  A    between atoms: _266  and  _267
REMARK  109  A    between atoms: _266  and  _269
REMARK  110  A    between atoms: _269  and  _270
REMARK  111  A    between atoms: _275  and  _277
REMARK  112  A    between atoms: _277  and  _278
REMARK  113  A    between atoms: _277  and  _280
REMARK  114  A    between atoms: _280  and  _281
REMARK  115  A    between atoms: _281  and  _282
REMARK  116  A    between atoms: _282  and  _283
REMARK  117  A    between atoms: _292  and  _294
REMARK  118  A    between atoms: _294  and  _295
REMARK  119  A    between atoms: _294  and  _297
REMARK  120  A    between atoms: _297  and  _298
REMARK  121  A    between atoms: _301  and  _303
REMARK  122  A    between atoms: _303  and  _304
REMARK  123  A    between atoms: _303  and  _306
REMARK  124  A    between atoms: _306  and  _307
REMARK  125  A    between atoms: _310  and  _312
REMARK  126  A    between atoms: _312  and  _313
REMARK  127  A    between atoms: _312  and  _315
REMARK  128  A    between atoms: _315  and  _316
REMARK  129  A    between atoms: _319  and  _321
REMARK  130  A    between atoms: _321  and  _322
REMARK  131  A    between atoms: _321  and  _324
REMARK  132  A    between atoms: _324  and  _325
REMARK  133  A    between atoms: _328  and  _330
REMARK  134  A    between atoms: _330  and  _331
REMARK  135  A    between atoms: _333  and  _335
REMARK  136  A    between atoms: _335  and  _336
REMARK  137  A    between atoms: _339  and  _341
REMARK  138  A    between atoms: _341  and  _342
REMARK  139  A    between atoms: _341  and  _344
REMARK  140  A    between atoms: _344  and  _345
REMARK  141  A    between atoms: _348  and  _350
REMARK  142  A    between atoms: _350  and  _351
REMARK  143  A    between atoms: _350  and  _353
REMARK  144  A    between atoms: _353  and  _354
REMARK  145  A    between atoms: _357  and  _359
REMARK  146  A    between atoms: _359  and  _360
REMARK  147  A    between atoms: _359  and  _362
REMARK  148  A    between atoms: _362  and  _363
REMARK  149  A    between atoms: _366  and  _368
REMARK  150  A    between atoms: _368  and  _369
REMARK  151  A    between atoms: _368  and  _371
REMARK  152  A    between atoms: _374  and  _376
REMARK  153  A    between atoms: _376  and  _377
REMARK  154  A    between atoms: _376  and  _379
REMARK  155  A    between atoms: _379  and  _380
REMARK  156  A    between atoms: _380  and  _381
REMARK  157  A    between atoms: _381  and  _382
REMARK  158  A    between atoms: _382  and  _383
REMARK  159  A    between atoms: _387  and  _389
REMARK  160  A    between atoms: _389  and  _390
REMARK  161  A    between atoms: _389  and  _392
REMARK  162  A    between atoms: _392  and  _393
REMARK  163  A    between atoms: _393  and  _394
REMARK  164  A    between atoms: _396  and  _398
REMARK  165  A    between atoms: _398  and  _399
REMARK  166  A    between atoms: _398  and  _401
REMARK  167  A    between atoms: _401  and  _402
REMARK  168  A    between atoms: _405  and  _407
REMARK  169  A    between atoms: _407  and  _408
REMARK  170  A    between atoms: _410  and  _412
REMARK  171  A    between atoms: _412  and  _413
REMARK  172  A    between atoms: _415  and  _417
REMARK  173  A    between atoms: _417  and  _418
REMARK  174  A    between atoms: _417  and  _420
REMARK  175  A    between atoms: _420  and  _421
REMARK  176  A    between atoms: _424  and  _426
REMARK  177  A    between atoms: _426  and  _427
REMARK  178  A    between atoms: _429  and  _431
REMARK  179  A    between atoms: _431  and  _432
REMARK  180  A    between atoms: _434  and  _436
REMARK  181  A    between atoms: _436  and  _437
REMARK  182  A    between atoms: _436  and  _439
REMARK  183  A    between atoms: _439  and  _440
REMARK  184  A    between atoms: _446  and  _448
REMARK  185  A    between atoms: _448  and  _449
REMARK  186  A    between atoms: _448  and  _451
REMARK  187  A    between atoms: _451  and  _452
REMARK  188  A    between atoms: _455  and  _457
REMARK  189  A    between atoms: _457  and  _458
REMARK  190  A    between atoms: _457  and  _460
REMARK  191  A    between atoms: _460  and  _461
REMARK  192  A    between atoms: _464  and  _466
REMARK  193  A    between atoms: _466  and  _467
REMARK  194  A    between atoms: _466  and  _469
REMARK  195  A    between atoms: _469  and  _470
REMARK  196  A    between atoms: _474  and  _475
REMARK  197  A    between atoms: _480  and  _482
REMARK  198  A    between atoms: _482  and  _483
REMARK  199  A    between atoms: _482  and  _485
REMARK  200  A    between atoms: _488  and  _490
REMARK  201  A    between atoms: _490  and  _491
REMARK  202  A    between atoms: _490  and  _493
REMARK  203  A    between atoms: _493  and  _494
REMARK  204  A    between atoms: _499  and  _501
REMARK  205  A    between atoms: _501  and  _502
REMARK  206  A    between atoms: _501  and  _504
REMARK  207  A    between atoms: _504  and  _505
REMARK  208  A    between atoms: _508  and  _510
REMARK  209  A    between atoms: _510  and  _511
REMARK  210  A    between atoms: _510  and  _513
REMARK  211  A    between atoms: _513  and  _514
REMARK  212  A    between atoms: _517  and  _519
REMARK  213  A    between atoms: _519  and  _520
REMARK  214  A    between atoms: _522  and  _524
REMARK  215  A    between atoms: _524  and  _525
REMARK  216  A    between atoms: _524  and  _527
REMARK  217  A    between atoms: _527  and  _528
REMARK  218  A    between atoms: _528  and  _529
REMARK  219  A    between atoms: _529  and  _530
REMARK  220  A    between atoms: _539  and  _541
REMARK  221  A    between atoms: _541  and  _542
REMARK  222  A    between atoms: _541  and  _544
REMARK  223  A    between atoms: _544  and  _545
REMARK                            x       y       z     vdW  Elec       q    Type
REMARK                         _______ _______ _______ _____ _____    ______ ____
ROOT
ATOM      1  CA  ILE A   1      26.498  33.436   3.986  0.00  0.00    +0.133 C 
ENDROOT
BRANCH   1   2
ATOM      2  N   ILE A   1      25.244  32.696   3.958  0.00  0.00    -0.239 NA
ATOM      3  H   ILE A   1      25.207  31.756   4.401  0.00  0.00    +0.142 HD
ENDBRANCH   1   2
BRANCH   1   4
ATOM      4  CB  ILE A   1      26.791  33.997   5.405  0.00  0.00    +0.023 C 
ATOM      5  CG2 ILE A   1      25.635  34.886   5.887  0.00  0.00    +0.002 C 
BRANCH   4   6
ATOM      6  CG1 ILE A   1      27.004  32.873   6.410  0.00  0.00    +0.002 C 
ATOM      7  CD1 ILE A   1      27.472  33.361   7.752  0.00  0.00    +0.000 C 
ENDBRANCH   4   6
ENDBRANCH   1   4
BRANCH   1   8
ATOM      8  C   ILE A   1      27.675  32.569   3.513  0.00  0.00    +0.224 C 
ATOM      9  O   ILE A   1      27.600  31.335   3.492  0.00  0.00    -0.287 OA
ENDBRANCH   1   8
TORSDOF 4
REMARK  Name = ../refined-set-2016/2qi0/2qi0_pocket.pdb
REMARK  223 active torsions:
REMARK  status: ('A' for Active; 'I' for Inactive)
REMARK    1  A    between atoms: _1  and  _3
REMARK    2  A    between atoms: _3  and  _4
REMARK    3  A    between atoms: _3  and  _6
REMARK    4  A    between atoms: _6  and  _7
REMARK    5  A    between atoms: _7  and  _8
REMARK    6  A    between atoms: _8  and  _9
REMARK    7  A    between atoms: _18  and  _20
REMARK    8  A    between atoms: _20  and  _21
REMARK    9  A    between atoms: _20  and  _23
REMARK   10  A    between atoms: _23  and  _24
REMARK   11  A    between atoms: _27  and  _29
REMARK   12  A    between atoms: _29  and  _30
REMARK   13  A    between atoms: _29  and  _32
REMARK   14  A    between atoms: _32  and  _33
REMARK   15  A    between atoms: _36  and  _38
REMARK   16  A    between atoms: _38  and  _39
REMARK   17  A    between atoms: _38  and  _41
REMARK   18  A    between atoms: _41  and  _42
REMARK   19  A    between atoms: _45  and  _47
REMARK   20  A    between atoms: _47  and  _48
REMARK   21  A    between atoms: _47  and  _50
REMARK   22  A    between atoms: _50  and  _51
REMARK   23  A    between atoms: _54  and  _56
REMARK   24  A    between atoms: _56  and  _57
REMARK   25  A    between atoms: _59  and  _61
REMARK   26  A    between atoms: _61  and  _62
REMARK   27  A    between atoms: _65  and  _67
REMARK   28  A    between atoms: _67  and  _68
REMARK   29  A    between atoms: _67  and  _70
REMARK   30  A    between atoms: _70  and  _71
REMARK   31  A    between atoms: _74  and  _76
REMARK   32  A    between atoms: _76  and  _77
REMARK   33  A    between atoms: _76  and  _79
REMARK   34  A    between atoms: _79  and  _80
REMARK   35  A    between atoms: _83  and  _85
REMARK   36  A    between atoms: _85  and  _86
REMARK   37  A    between atoms: _85  and  _88
REMARK   38  A    between atoms: _88  and  _89
REMARK   39  A    between atoms: _92  and  _94
REMARK   40  A    between atoms: _94  and  _95
REMARK   41  A    between atoms: _94  and  _97
REMARK   42  A    between atoms: _100  and  _102
REMARK   43  A    between atoms: _102  and  _103
REMARK   44  A    between atoms: _102  and  _105
REMARK   45  A    between atoms: _105  and  _106
REMARK   46  A    between atoms: _109  and  _111
REMARK   47  A    between atoms: _111  and  _112
REMARK   48  A    between atoms: _111  and  _114
REMARK   49  A    between atoms: _114  and  _115
REMARK   50  A    between atoms: _115  and  _116
REMARK   51  A    between atoms: _118  and  _120
REMARK   52  A    between atoms: _120  and  _121
REMARK   53  A    between atoms: _120  and  _123
REMARK   54  A    between atoms: _123  and  _124
REMARK   55  A    between atoms: _127  and  _129
REMARK   56  A    between atoms: _129  and  _130
REMARK   57  A    between atoms: _132  and  _134
REMARK   58  A    between atoms: _134  and  _135
REMARK   59  A    between atoms: _137  and  _139
REMARK   60  A    between atoms: _139  and  _140
REMARK   61  A    between atoms: _139  and  _142
REMARK   62  A    between atoms: _142  and  _143
REMARK   63  A    between atoms: _146  and  _148
REMARK   64  A    between atoms: _148  and  _149
REMARK   65  A    between atoms: _151  and  _153
REMARK   66  A    between atoms: _153  and  _154
REMARK   67  A    between atoms: _156  and  _158
REMARK   68  A    between atoms: _158  and  _159
REMARK   69  A    between atoms: _158  and  _161
REMARK   70  A    between atoms: _161  and  _162
REMARK   71  A    between atoms: _165  and  _167
REMARK   72  A    between atoms: _167  and  _168
REMARK   73  A    between atoms: _167  and  _170
REMARK   74  A    between atoms: _173  and  _175
REMARK   75  A    between atoms: _175  and  _176
REMARK   76  A    between atoms: _175  and  _178
REMARK   77  A    between atoms: _178  and  _179
REMARK   78  A    between atoms: _183  and  _184
REMARK   79  A    between atoms: _189  and  _191
REMARK   80  A    between atoms: _191  and  _192
REMARK   81  A    between atoms: _191  and  _194
REMARK   82  A    between atoms: _194  and  _195
REMARK   83  A    between atoms: _199  and  _200
REMARK   84  A    between atoms: _205  and  _207
REMARK   85  A    between atoms: _207  and  _208
REMARK   86  A    between atoms: _207  and  _210
REMARK   87  A    between atoms: _213  and  _215
REMARK   88  A    between atoms: _215  and  _216
REMARK   89  A    between atoms: _215  and  _218
REMARK   90  A    between atoms: _218  and  _219
REMARK   91  A    between atoms: _224  and  _226
REMARK   92  A    between atoms: _226  and  _227
REMARK   93  A    between atoms: _226  and  _229
REMARK   94  A    between atoms: _229  and  _230
REMARK   95  A    between atoms: _233  and  _235
REMARK   96  A    between atoms: _235  and  _236
REMARK   97  A    between atoms: _235  and  _238
REMARK   98  A    between atoms: _238  and  _239
REMARK   99  A    between atoms: _242  and  _244
REMARK  100  A    between atoms: _244  and  _245
REMARK  101  A    between atoms: _247  and  _249
REMARK  102  A    between atoms: _249  and  _250
REMARK  103  A    between atoms: _249  and  _252
REMARK  104  A    between atoms: _252  and  _253
REMARK  105  A    between atoms: _253  and  _254
REMARK  106  A    between atoms: _254  and  _255
REMARK  107  A    between atoms: _264  and  _266
REMARK  108  A    between atoms: _266  and  _267
REMARK  109  A    between atoms: _266  and  _269
REMARK  110  A    between atoms: _269  and  _270
REMARK  111  A    between atoms: _275  and  _277
REMARK  112  A    between atoms: _277  and  _278
REMARK  113  A    between atoms: _277  and  _280
REMARK  114  A    between atoms: _280  and  _281
REMARK  115  A    between atoms: _281  and  _282
REMARK  116  A    between atoms: _282  and  _283
REMARK  117  A    between atoms: _292  and  _294
REMARK  118  A    between atoms: _294  and  _295
REMARK  119  A    between atoms: _294  and  _297
REMARK  120  A    between atoms: _297  and  _298
REMARK  121  A    between atoms: _301  and  _303
REMARK  122  A    between atoms: _303  and  _304
REMARK  123  A    between atoms: _303  and  _306
REMARK  124  A    between atoms: _306  and  _307
REMARK  125  A    between atoms: _310  and  _312
REMARK  126  A    between atoms: _312  and  _313
REMARK  127  A    between atoms: _312  and  _315
REMARK  128  A    between atoms: _315  and  _316
REMARK  129  A    between atoms: _319  and  _321
REMARK  130  A    between atoms: _321  and  _322
REMARK  131  A    between atoms: _321  and  _324
REMARK  132  A    between atoms: _324  and  _325
REMARK  133  A    between atoms: _328  and  _330
REMARK  134  A    between atoms: _330  and  _331
REMARK  135  A    between atoms: _333  and  _335
REMARK  136  A    between atoms: _335  and  _336
REMARK  137  A    between atoms: _339  and  _341
REMARK  138  A    between atoms: _341  and  _342
REMARK  139  A    between atoms: _341  and  _344
REMARK  140  A    between atoms: _344  and  _345
REMARK  141  A    between atoms: _348  and  _350
REMARK  142  A    between atoms: _350  and  _351
REMARK  143  A    between atoms: _350  and  _353
REMARK  144  A    between atoms: _353  and  _354
REMARK  145  A    between atoms: _357  and  _359
REMARK  146  A    between atoms: _359  and  _360
REMARK  147  A    between atoms: _359  and  _362
REMARK  148  A    between atoms: _362  and  _363
REMARK  149  A    between atoms: _366  and  _368
REMARK  150  A    between atoms: _368  and  _369
REMARK  151  A    between atoms: _368  and  _371
REMARK  152  A    between atoms: _374  and  _376
REMARK  153  A    between atoms: _376  and  _377
REMARK  154  A    between atoms: _376  and  _379
REMARK  155  A    between atoms: _379  and  _380
REMARK  156  A    between atoms: _380  and  _381
REMARK  157  A    between atoms: _381  and  _382
REMARK  158  A    between atoms: _382  and  _383
REMARK  159  A    between atoms: _387  and  _389
REMARK  160  A    between atoms: _389  and  _390
REMARK  161  A    between atoms: _389  and  _392
REMARK  162  A    between atoms: _392  and  _393
REMARK  163  A    between atoms: _393  and  _394
REMARK  164  A    between atoms: _396  and  _398
REMARK  165  A    between atoms: _398  and  _399
REMARK  166  A    between atoms: _398  and  _401
REMARK  167  A    between atoms: _401  and  _402
REMARK  168  A    between atoms: _405  and  _407
REMARK  169  A    between atoms: _407  and  _408
REMARK  170  A    between atoms: _410  and  _412
REMARK  171  A    between atoms: _412  and  _413
REMARK  172  A    between atoms: _415  and  _417
REMARK  173  A    between atoms: _417  and  _418
REMARK  174  A    between atoms: _417  and  _420
REMARK  175  A    between atoms: _420  and  _421
REMARK  176  A    between atoms: _424  and  _426
REMARK  177  A    between atoms: _426  and  _427
REMARK  178  A    between atoms: _429  and  _431
REMARK  179  A    between atoms: _431  and  _432
REMARK  180  A    between atoms: _434  and  _436
REMARK  181  A    between atoms: _436  and  _437
REMARK  182  A    between atoms: _436  and  _439
REMARK  183  A    between atoms: _439  and  _440
REMARK  184  A    between atoms: _446  and  _448
REMARK  185  A    between atoms: _448  and  _449
REMARK  186  A    between atoms: _448  and  _451
REMARK  187  A    between atoms: _451  and  _452
REMARK  188  A    between atoms: _455  and  _457
REMARK  189  A    between atoms: _457  and  _458
REMARK  190  A    between atoms: _457  and  _460
REMARK  191  A    between atoms: _460  and  _461
REMARK  192  A    between atoms: _464  and  _466
REMARK  193  A    between atoms: _466  and  _467
REMARK  194  A    between atoms: _466  and  _469
REMARK  195  A    between atoms: _469  and  _470
REMARK  196  A    between atoms: _474  and  _475
REMARK  197  A    between atoms: _480  and  _482
REMARK  198  A    between atoms: _482  and  _483
REMARK  199  A    between atoms: _482  and  _485
REMARK  200  A    between atoms: _488  and  _490
REMARK  201  A    between atoms: _490  and  _491
REMARK  202  A    between atoms: _490  and  _493
REMARK  203  A    between atoms: _493  and  _494
REMARK  204  A    between atoms: _499  and  _501
REMARK  205  A    between atoms: _501  and  _502
REMARK  206  A    between atoms: _501  and  _504
REMARK  207  A    between atoms: _504  and  _505
REMARK  208  A    between atoms: _508  and  _510
REMARK  209  A    between atoms: _510  and  _511
REMARK  210  A    between atoms: _510  and  _513
REMARK  211  A    between atoms: _513  and  _514
REMARK  212  A    between atoms: _517  and  _519
REMARK  213  A    between atoms: _519  and  _520
REMARK  214  A    between atoms: _522  and  _524
REMARK  215  A    between atoms: _524  and  _525
REMARK  216  A    between atoms: _524  and  _527
REMARK  217  A    between atoms: _527  and  _528
REMARK  218  A    between atoms: _528  and  _529
REMARK  219  A    between atoms: _529  and  _530
REMARK  220  A    between atoms: _539  and  _541
REMARK  221  A    between atoms: _541  and  _542
REMARK  222  A    between atoms: _541  and  _544
REMARK  223  A    between atoms: _544  and  _545
REMARK                            x       y       z     vdW  Elec       q    Type
REMARK                         _______ _______ _______ _____ _____    ______ ____
ROOT
ATOM      1  CA  VAL A   1      32.382  31.173   5.424  0.00  0.00    +0.133 C 
ENDROOT
BRANCH   1   2
ATOM      2  CB  VAL A   1      31.726  30.375   6.556  0.00  0.00    +0.023 C 
ATOM      3  CG2 VAL A   1      30.605  31.184   7.186  0.00  0.00    +0.002 C 
ATOM      4  CG1 VAL A   1      31.225  29.023   6.036  0.00  0.00    +0.002 C 
ENDBRANCH   1   2
BRANCH   1   5
ATOM      5  N   VAL A   1      31.464  31.332   4.302  0.00  0.00    -0.239 NA
ATOM      6  H   VAL A   1      31.287  30.525   3.670  0.00  0.00    +0.142 HD
ENDBRANCH   1   5
BRANCH   1   7
ATOM      7  C   VAL A   1      33.651  30.464   4.972  0.00  0.00    +0.224 C 
ATOM      8  O   VAL A   1      33.698  29.914   3.874  0.00  0.00    -0.287 OA
ENDBRANCH   1   7
TORSDOF 3
REMARK  Name = ../refined-set-2016/2qi0/2qi0_pocket.pdb
REMARK  223 active torsions:
REMARK  status: ('A' for Active; 'I' for Inactive)
REMARK    1  A    between atoms: _1  and  _3
REMARK    2  A    between atoms: _3  and  _4
REMARK    3  A    between atoms: _3  and  _6
REMARK    4  A    between atoms: _6  and  _7
REMARK    5  A    between atoms: _7  and  _8
REMARK    6  A    between atoms: _8  and  _9
REMARK    7  A    between atoms: _18  and  _20
REMARK    8  A    between atoms: _20  and  _21
REMARK    9  A    between atoms: _20  and  _23
REMARK   10  A    between atoms: _23  and  _24
REMARK   11  A    between atoms: _27  and  _29
REMARK   12  A    between atoms: _29  and  _30
REMARK   13  A    between atoms: _29  and  _32
REMARK   14  A    between atoms: _32  and  _33
REMARK   15  A    between atoms: _36  and  _38
REMARK   16  A    between atoms: _38  and  _39
REMARK   17  A    between atoms: _38  and  _41
REMARK   18  A    between atoms: _41  and  _42
REMARK   19  A    between atoms: _45  and  _47
REMARK   20  A    between atoms: _47  and  _48
REMARK   21  A    between atoms: _47  and  _50
REMARK   22  A    between atoms: _50  and  _51
REMARK   23  A    between atoms: _54  and  _56
REMARK   24  A    between atoms: _56  and  _57
REMARK   25  A    between atoms: _59  and  _61
REMARK   26  A    between atoms: _61  and  _62
REMARK   27  A    between atoms: _65  and  _67
REMARK   28  A    between atoms: _67  and  _68
REMARK   29  A    between atoms: _67  and  _70
REMARK   30  A    between atoms: _70  and  _71
REMARK   31  A    between atoms: _74  and  _76
REMARK   32  A    between atoms: _76  and  _77
REMARK   33  A    between atoms: _76  and  _79
REMARK   34  A    between atoms: _79  and  _80
REMARK   35  A    between atoms: _83  and  _85
REMARK   36  A    between atoms: _85  and  _86
REMARK   37  A    between atoms: _85  and  _88
REMARK   38  A    between atoms: _88  and  _89
REMARK   39  A    between atoms: _92  and  _94
REMARK   40  A    between atoms: _94  and  _95
REMARK   41  A    between atoms: _94  and  _97
REMARK   42  A    between atoms: _100  and  _102
REMARK   43  A    between atoms: _102  and  _103
REMARK   44  A    between atoms: _102  and  _105
REMARK   45  A    between atoms: _105  and  _106
REMARK   46  A    between atoms: _109  and  _111
REMARK   47  A    between atoms: _111  and  _112
REMARK   48  A    between atoms: _111  and  _114
REMARK   49  A    between atoms: _114  and  _115
REMARK   50  A    between atoms: _115  and  _116
REMARK   51  A    between atoms: _118  and  _120
REMARK   52  A    between atoms: _120  and  _121
REMARK   53  A    between atoms: _120  and  _123
REMARK   54  A    between atoms: _123  and  _124
REMARK   55  A    between atoms: _127  and  _129
REMARK   56  A    between atoms: _129  and  _130
REMARK   57  A    between atoms: _132  and  _134
REMARK   58  A    between atoms: _134  and  _135
REMARK   59  A    between atoms: _137  and  _139
REMARK   60  A    between atoms: _139  and  _140
REMARK   61  A    between atoms: _139  and  _142
REMARK   62  A    between atoms: _142  and  _143
REMARK   63  A    between atoms: _146  and  _148
REMARK   64  A    between atoms: _148  and  _149
REMARK   65  A    between atoms: _151  and  _153
REMARK   66  A    between atoms: _153  and  _154
REMARK   67  A    between atoms: _156  and  _158
REMARK   68  A    between atoms: _158  and  _159
REMARK   69  A    between atoms: _158  and  _161
REMARK   70  A    between atoms: _161  and  _162
REMARK   71  A    between atoms: _165  and  _167
REMARK   72  A    between atoms: _167  and  _168
REMARK   73  A    between atoms: _167  and  _170
REMARK   74  A    between atoms: _173  and  _175
REMARK   75  A    between atoms: _175  and  _176
REMARK   76  A    between atoms: _175  and  _178
REMARK   77  A    between atoms: _178  and  _179
REMARK   78  A    between atoms: _183  and  _184
REMARK   79  A    between atoms: _189  and  _191
REMARK   80  A    between atoms: _191  and  _192
REMARK   81  A    between atoms: _191  and  _194
REMARK   82  A    between atoms: _194  and  _195
REMARK   83  A    between atoms: _199  and  _200
REMARK   84  A    between atoms: _205  and  _207
REMARK   85  A    between atoms: _207  and  _208
REMARK   86  A    between atoms: _207  and  _210
REMARK   87  A    between atoms: _213  and  _215
REMARK   88  A    between atoms: _215  and  _216
REMARK   89  A    between atoms: _215  and  _218
REMARK   90  A    between atoms: _218  and  _219
REMARK   91  A    between atoms: _224  and  _226
REMARK   92  A    between atoms: _226  and  _227
REMARK   93  A    between atoms: _226  and  _229
REMARK   94  A    between atoms: _229  and  _230
REMARK   95  A    between atoms: _233  and  _235
REMARK   96  A    between atoms: _235  and  _236
REMARK   97  A    between atoms: _235  and  _238
REMARK   98  A    between atoms: _238  and  _239
REMARK   99  A    between atoms: _242  and  _244
REMARK  100  A    between atoms: _244  and  _245
REMARK  101  A    between atoms: _247  and  _249
REMARK  102  A    between atoms: _249  and  _250
REMARK  103  A    between atoms: _249  and  _252
REMARK  104  A    between atoms: _252  and  _253
REMARK  105  A    between atoms: _253  and  _254
REMARK  106  A    between atoms: _254  and  _255
REMARK  107  A    between atoms: _264  and  _266
REMARK  108  A    between atoms: _266  and  _267
REMARK  109  A    between atoms: _266  and  _269
REMARK  110  A    between atoms: _269  and  _270
REMARK  111  A    between atoms: _275  and  _277
REMARK  112  A    between atoms: _277  and  _278
REMARK  113  A    between atoms: _277  and  _280
REMARK  114  A    between atoms: _280  and  _281
REMARK  115  A    between atoms: _281  and  _282
REMARK  116  A    between atoms: _282  and  _283
REMARK  117  A    between atoms: _292  and  _294
REMARK  118  A    between atoms: _294  and  _295
REMARK  119  A    between atoms: _294  and  _297
REMARK  120  A    between atoms: _297  and  _298
REMARK  121  A    between atoms: _301  and  _303
REMARK  122  A    between atoms: _303  and  _304
REMARK  123  A    between atoms: _303  and  _306
REMARK  124  A    between atoms: _306  and  _307
REMARK  125  A    between atoms: _310  and  _312
REMARK  126  A    between atoms: _312  and  _313
REMARK  127  A    between atoms: _312  and  _315
REMARK  128  A    between atoms: _315  and  _316
REMARK  129  A    between atoms: _319  and  _321
REMARK  130  A    between atoms: _321  and  _322
REMARK  131  A    between atoms: _321  and  _324
REMARK  132  A    between atoms: _324  and  _325
REMARK  133  A    between atoms: _328  and  _330
REMARK  134  A    between atoms: _330  and  _331
REMARK  135  A    between atoms: _333  and  _335
REMARK  136  A    between atoms: _335  and  _336
REMARK  137  A    between atoms: _339  and  _341
REMARK  138  A    between atoms: _341  and  _342
REMARK  139  A    between atoms: _341  and  _344
REMARK  140  A    between atoms: _344  and  _345
REMARK  141  A    between atoms: _348  and  _350
REMARK  142  A    between atoms: _350  and  _351
REMARK  143  A    between atoms: _350  and  _353
REMARK  144  A    between atoms: _353  and  _354
REMARK  145  A    between atoms: _357  and  _359
REMARK  146  A    between atoms: _359  and  _360
REMARK  147  A    between atoms: _359  and  _362
REMARK  148  A    between atoms: _362  and  _363
REMARK  149  A    between atoms: _366  and  _368
REMARK  150  A    between atoms: _368  and  _369
REMARK  151  A    between atoms: _368  and  _371
REMARK  152  A    between atoms: _374  and  _376
REMARK  153  A    between atoms: _376  and  _377
REMARK  154  A    between atoms: _376  and  _379
REMARK  155  A    between atoms: _379  and  _380
REMARK  156  A    between atoms: _380  and  _381
REMARK  157  A    between atoms: _381  and  _382
REMARK  158  A    between atoms: _382  and  _383
REMARK  159  A    between atoms: _387  and  _389
REMARK  160  A    between atoms: _389  and  _390
REMARK  161  A    between atoms: _389  and  _392
REMARK  162  A    between atoms: _392  and  _393
REMARK  163  A    between atoms: _393  and  _394
REMARK  164  A    between atoms: _396  and  _398
REMARK  165  A    between atoms: _398  and  _399
REMARK  166  A    between atoms: _398  and  _401
REMARK  167  A    between atoms: _401  and  _402
REMARK  168  A    between atoms: _405  and  _407
REMARK  169  A    between atoms: _407  and  _408
REMARK  170  A    between atoms: _410  and  _412
REMARK  171  A    between atoms: _412  and  _413
REMARK  172  A    between atoms: _415  and  _417
REMARK  173  A    between atoms: _417  and  _418
REMARK  174  A    between atoms: _417  and  _420
REMARK  175  A    between atoms: _420  and  _421
REMARK  176  A    between atoms: _424  and  _426
REMARK  177  A    between atoms: _426  and  _427
REMARK  178  A    between atoms: _429  and  _431
REMARK  179  A    between atoms: _431  and  _432
REMARK  180  A    between atoms: _434  and  _436
REMARK  181  A    between atoms: _436  and  _437
REMARK  182  A    between atoms: _436  and  _439
REMARK  183  A    between atoms: _439  and  _440
REMARK  184  A    between atoms: _446  and  _448
REMARK  185  A    between atoms: _448  and  _449
REMARK  186  A    between atoms: _448  and  _451
REMARK  187  A    between atoms: _451  and  _452
REMARK  188  A    between atoms: _455  and  _457
REMARK  189  A    between atoms: _457  and  _458
REMARK  190  A    between atoms: _457  and  _460
REMARK  191  A    between atoms: _460  and  _461
REMARK  192  A    between atoms: _464  and  _466
REMARK  193  A    between atoms: _466  and  _467
REMARK  194  A    between atoms: _466  and  _469
REMARK  195  A    between atoms: _469  and  _470
REMARK  196  A    between atoms: _474  and  _475
REMARK  197  A    between atoms: _480  and  _482
REMARK  198  A    between atoms: _482  and  _483
REMARK  199  A    between atoms: _482  and  _485
REMARK  200  A    between atoms: _488  and  _490
REMARK  201  A    between atoms: _490  and  _491
REMARK  202  A    between atoms: _490  and  _493
REMARK  203  A    between atoms: _493  and  _494
REMARK  204  A    between atoms: _499  and  _501
REMARK  205  A    between atoms: _501  and  _502
REMARK  206  A    between atoms: _501  and  _504
REMARK  207  A    between atoms: _504  and  _505
REMARK  208  A    between atoms: _508  and  _510
REMARK  209  A    between atoms: _510  and  _511
REMARK  210  A    between atoms: _510  and  _513
REMARK  211  A    between atoms: _513  and  _514
REMARK  212  A    between atoms: _517  and  _519
REMARK  213  A    between atoms: _519  and  _520
REMARK  214  A    between atoms: _522  and  _524
REMARK  215  A    between atoms: _524  and  _525
REMARK  216  A    between atoms: _524  and  _527
REMARK  217  A    between atoms: _527  and  _528
REMARK  218  A    between atoms: _528  and  _529
REMARK  219  A    between atoms: _529  and  _530
REMARK  220  A    between atoms: _539  and  _541
REMARK  221  A    between atoms: _541  and  _542
REMARK  222  A    between atoms: _541  and  _544
REMARK  223  A    between atoms: _544  and  _545
REMARK                            x       y       z     vdW  Elec       q    Type
REMARK                         _______ _______ _______ _____ _____    ______ ____
ROOT
ATOM      1  CA  LEU A   1      33.657  27.968  10.304  0.00  0.00    +0.133 C 
ENDROOT
BRANCH   1   2
ATOM      2  N   LEU A   1      33.937  27.052  11.405  0.00  0.00    -0.239 NA
ATOM      3  H   LEU A   1      33.191  26.890  12.112  0.00  0.00    +0.142 HD
ENDBRANCH   1   2
BRANCH   1   4
ATOM      4  C   LEU A   1      33.875  29.413  10.766  0.00  0.00    +0.224 C 
ATOM      5  O   LEU A   1      33.525  29.799  11.891  0.00  0.00    -0.287 OA
ENDBRANCH   1   4
BRANCH   1   6
ATOM      6  CB  LEU A   1      32.212  27.802   9.802  0.00  0.00    +0.025 C 
BRANCH   6   7
ATOM      7  CG  LEU A   1      31.736  26.371   9.537  0.00  0.00    +0.002 C 
ATOM      8  CD2 LEU A   1      30.270  26.376   9.147  0.00  0.00    +0.000 C 
ATOM      9  CD1 LEU A   1      32.559  25.726   8.455  0.00  0.00    +0.000 C 
ENDBRANCH   6   7
ENDBRANCH   1   6
TORSDOF 4
REMARK  Name = ../refined-set-2016/2qi0/2qi0_pocket.pdb
REMARK  223 active torsions:
REMARK  status: ('A' for Active; 'I' for Inactive)
REMARK    1  A    between atoms: _1  and  _3
REMARK    2  A    between atoms: _3  and  _4
REMARK    3  A    between atoms: _3  and  _6
REMARK    4  A    between atoms: _6  and  _7
REMARK    5  A    between atoms: _7  and  _8
REMARK    6  A    between atoms: _8  and  _9
REMARK    7  A    between atoms: _18  and  _20
REMARK    8  A    between atoms: _20  and  _21
REMARK    9  A    between atoms: _20  and  _23
REMARK   10  A    between atoms: _23  and  _24
REMARK   11  A    between atoms: _27  and  _29
REMARK   12  A    between atoms: _29  and  _30
REMARK   13  A    between atoms: _29  and  _32
REMARK   14  A    between atoms: _32  and  _33
REMARK   15  A    between atoms: _36  and  _38
REMARK   16  A    between atoms: _38  and  _39
REMARK   17  A    between atoms: _38  and  _41
REMARK   18  A    between atoms: _41  and  _42
REMARK   19  A    between atoms: _45  and  _47
REMARK   20  A    between atoms: _47  and  _48
REMARK   21  A    between atoms: _47  and  _50
REMARK   22  A    between atoms: _50  and  _51
REMARK   23  A    between atoms: _54  and  _56
REMARK   24  A    between atoms: _56  and  _57
REMARK   25  A    between atoms: _59  and  _61
REMARK   26  A    between atoms: _61  and  _62
REMARK   27  A    between atoms: _65  and  _67
REMARK   28  A    between atoms: _67  and  _68
REMARK   29  A    between atoms: _67  and  _70
REMARK   30  A    between atoms: _70  and  _71
REMARK   31  A    between atoms: _74  and  _76
REMARK   32  A    between atoms: _76  and  _77
REMARK   33  A    between atoms: _76  and  _79
REMARK   34  A    between atoms: _79  and  _80
REMARK   35  A    between atoms: _83  and  _85
REMARK   36  A    between atoms: _85  and  _86
REMARK   37  A    between atoms: _85  and  _88
REMARK   38  A    between atoms: _88  and  _89
REMARK   39  A    between atoms: _92  and  _94
REMARK   40  A    between atoms: _94  and  _95
REMARK   41  A    between atoms: _94  and  _97
REMARK   42  A    between atoms: _100  and  _102
REMARK   43  A    between atoms: _102  and  _103
REMARK   44  A    between atoms: _102  and  _105
REMARK   45  A    between atoms: _105  and  _106
REMARK   46  A    between atoms: _109  and  _111
REMARK   47  A    between atoms: _111  and  _112
REMARK   48  A    between atoms: _111  and  _114
REMARK   49  A    between atoms: _114  and  _115
REMARK   50  A    between atoms: _115  and  _116
REMARK   51  A    between atoms: _118  and  _120
REMARK   52  A    between atoms: _120  and  _121
REMARK   53  A    between atoms: _120  and  _123
REMARK   54  A    between atoms: _123  and  _124
REMARK   55  A    between atoms: _127  and  _129
REMARK   56  A    between atoms: _129  and  _130
REMARK   57  A    between atoms: _132  and  _134
REMARK   58  A    between atoms: _134  and  _135
REMARK   59  A    between atoms: _137  and  _139
REMARK   60  A    between atoms: _139  and  _140
REMARK   61  A    between atoms: _139  and  _142
REMARK   62  A    between atoms: _142  and  _143
REMARK   63  A    between atoms: _146  and  _148
REMARK   64  A    between atoms: _148  and  _149
REMARK   65  A    between atoms: _151  and  _153
REMARK   66  A    between atoms: _153  and  _154
REMARK   67  A    between atoms: _156  and  _158
REMARK   68  A    between atoms: _158  and  _159
REMARK   69  A    between atoms: _158  and  _161
REMARK   70  A    between atoms: _161  and  _162
REMARK   71  A    between atoms: _165  and  _167
REMARK   72  A    between atoms: _167  and  _168
REMARK   73  A    between atoms: _167  and  _170
REMARK   74  A    between atoms: _173  and  _175
REMARK   75  A    between atoms: _175  and  _176
REMARK   76  A    between atoms: _175  and  _178
REMARK   77  A    between atoms: _178  and  _179
REMARK   78  A    between atoms: _183  and  _184
REMARK   79  A    between atoms: _189  and  _191
REMARK   80  A    between atoms: _191  and  _192
REMARK   81  A    between atoms: _191  and  _194
REMARK   82  A    between atoms: _194  and  _195
REMARK   83  A    between atoms: _199  and  _200
REMARK   84  A    between atoms: _205  and  _207
REMARK   85  A    between atoms: _207  and  _208
REMARK   86  A    between atoms: _207  and  _210
REMARK   87  A    between atoms: _213  and  _215
REMARK   88  A    between atoms: _215  and  _216
REMARK   89  A    between atoms: _215  and  _218
REMARK   90  A    between atoms: _218  and  _219
REMARK   91  A    between atoms: _224  and  _226
REMARK   92  A    between atoms: _226  and  _227
REMARK   93  A    between atoms: _226  and  _229
REMARK   94  A    between atoms: _229  and  _230
REMARK   95  A    between atoms: _233  and  _235
REMARK   96  A    between atoms: _235  and  _236
REMARK   97  A    between atoms: _235  and  _238
REMARK   98  A    between atoms: _238  and  _239
REMARK   99  A    between atoms: _242  and  _244
REMARK  100  A    between atoms: _244  and  _245
REMARK  101  A    between atoms: _247  and  _249
REMARK  102  A    between atoms: _249  and  _250
REMARK  103  A    between atoms: _249  and  _252
REMARK  104  A    between atoms: _252  and  _253
REMARK  105  A    between atoms: _253  and  _254
REMARK  106  A    between atoms: _254  and  _255
REMARK  107  A    between atoms: _264  and  _266
REMARK  108  A    between atoms: _266  and  _267
REMARK  109  A    between atoms: _266  and  _269
REMARK  110  A    between atoms: _269  and  _270
REMARK  111  A    between atoms: _275  and  _277
REMARK  112  A    between atoms: _277  and  _278
REMARK  113  A    between atoms: _277  and  _280
REMARK  114  A    between atoms: _280  and  _281
REMARK  115  A    between atoms: _281  and  _282
REMARK  116  A    between atoms: _282  and  _283
REMARK  117  A    between atoms: _292  and  _294
REMARK  118  A    between atoms: _294  and  _295
REMARK  119  A    between atoms: _294  and  _297
REMARK  120  A    between atoms: _297  and  _298
REMARK  121  A    between atoms: _301  and  _303
REMARK  122  A    between atoms: _303  and  _304
REMARK  123  A    between atoms: _303  and  _306
REMARK  124  A    between atoms: _306  and  _307
REMARK  125  A    between atoms: _310  and  _312
REMARK  126  A    between atoms: _312  and  _313
REMARK  127  A    between atoms: _312  and  _315
REMARK  128  A    between atoms: _315  and  _316
REMARK  129  A    between atoms: _319  and  _321
REMARK  130  A    between atoms: _321  and  _322
REMARK  131  A    between atoms: _321  and  _324
REMARK  132  A    between atoms: _324  and  _325
REMARK  133  A    between atoms: _328  and  _330
REMARK  134  A    between atoms: _330  and  _331
REMARK  135  A    between atoms: _333  and  _335
REMARK  136  A    between atoms: _335  and  _336
REMARK  137  A    between atoms: _339  and  _341
REMARK  138  A    between atoms: _341  and  _342
REMARK  139  A    between atoms: _341  and  _344
REMARK  140  A    between atoms: _344  and  _345
REMARK  141  A    between atoms: _348  and  _350
REMARK  142  A    between atoms: _350  and  _351
REMARK  143  A    between atoms: _350  and  _353
REMARK  144  A    between atoms: _353  and  _354
REMARK  145  A    between atoms: _357  and  _359
REMARK  146  A    between atoms: _359  and  _360
REMARK  147  A    between atoms: _359  and  _362
REMARK  148  A    between atoms: _362  and  _363
REMARK  149  A    between atoms: _366  and  _368
REMARK  150  A    between atoms: _368  and  _369
REMARK  151  A    between atoms: _368  and  _371
REMARK  152  A    between atoms: _374  and  _376
REMARK  153  A    between atoms: _376  and  _377
REMARK  154  A    between atoms: _376  and  _379
REMARK  155  A    between atoms: _379  and  _380
REMARK  156  A    between atoms: _380  and  _381
REMARK  157  A    between atoms: _381  and  _382
REMARK  158  A    between atoms: _382  and  _383
REMARK  159  A    between atoms: _387  and  _389
REMARK  160  A    between atoms: _389  and  _390
REMARK  161  A    between atoms: _389  and  _392
REMARK  162  A    between atoms: _392  and  _393
REMARK  163  A    between atoms: _393  and  _394
REMARK  164  A    between atoms: _396  and  _398
REMARK  165  A    between atoms: _398  and  _399
REMARK  166  A    between atoms: _398  and  _401
REMARK  167  A    between atoms: _401  and  _402
REMARK  168  A    between atoms: _405  and  _407
REMARK  169  A    between atoms: _407  and  _408
REMARK  170  A    between atoms: _410  and  _412
REMARK  171  A    between atoms: _412  and  _413
REMARK  172  A    between atoms: _415  and  _417
REMARK  173  A    between atoms: _417  and  _418
REMARK  174  A    between atoms: _417  and  _420
REMARK  175  A    between atoms: _420  and  _421
REMARK  176  A    between atoms: _424  and  _426
REMARK  177  A    between atoms: _426  and  _427
REMARK  178  A    between atoms: _429  and  _431
REMARK  179  A    between atoms: _431  and  _432
REMARK  180  A    between atoms: _434  and  _436
REMARK  181  A    between atoms: _436  and  _437
REMARK  182  A    between atoms: _436  and  _439
REMARK  183  A    between atoms: _439  and  _440
REMARK  184  A    between atoms: _446  and  _448
REMARK  185  A    between atoms: _448  and  _449
REMARK  186  A    between atoms: _448  and  _451
REMARK  187  A    between atoms: _451  and  _452
REMARK  188  A    between atoms: _455  and  _457
REMARK  189  A    between atoms: _457  and  _458
REMARK  190  A    between atoms: _457  and  _460
REMARK  191  A    between atoms: _460  and  _461
REMARK  192  A    between atoms: _464  and  _466
REMARK  193  A    between atoms: _466  and  _467
REMARK  194  A    between atoms: _466  and  _469
REMARK  195  A    between atoms: _469  and  _470
REMARK  196  A    between atoms: _474  and  _475
REMARK  197  A    between atoms: _480  and  _482
REMARK  198  A    between atoms: _482  and  _483
REMARK  199  A    between atoms: _482  and  _485
REMARK  200  A    between atoms: _488  and  _490
REMARK  201  A    between atoms: _490  and  _491
REMARK  202  A    between atoms: _490  and  _493
REMARK  203  A    between atoms: _493  and  _494
REMARK  204  A    between atoms: _499  and  _501
REMARK  205  A    between atoms: _501  and  _502
REMARK  206  A    between atoms: _501  and  _504
REMARK  207  A    between atoms: _504  and  _505
REMARK  208  A    between atoms: _508  and  _510
REMARK  209  A    between atoms: _510  and  _511
REMARK  210  A    between atoms: _510  and  _513
REMARK  211  A    between atoms: _513  and  _514
REMARK  212  A    between atoms: _517  and  _519
REMARK  213  A    between atoms: _519  and  _520
REMARK  214  A    between atoms: _522  and  _524
REMARK  215  A    between atoms: _524  and  _525
REMARK  216  A    between atoms: _524  and  _527
REMARK  217  A    between atoms: _527  and  _528
REMARK  218  A    between atoms: _528  and  _529
REMARK  219  A    between atoms: _529  and  _530
REMARK  220  A    between atoms: _539  and  _541
REMARK  221  A    between atoms: _541  and  _542
REMARK  222  A    between atoms: _541  and  _544
REMARK  223  A    between atoms: _544  and  _545
REMARK                            x       y       z     vdW  Elec       q    Type
REMARK                         _______ _______ _______ _____ _____    ______ ____
ROOT
ATOM      1  CA  ILE A   6      28.430  30.215  18.181  0.00  0.00    +0.149 C 
ENDROOT
BRANCH   1   2
ATOM      2  C   ILE A   6      29.111  28.850  18.195  0.00  0.00    +0.241 C 
ATOM      3  N   ILE A   7      28.919  28.144  19.304  0.00  0.00    -0.297 N 
ATOM      4  H   ILE A   7      28.501  28.614  20.132  0.00  0.00    +0.150 HD
ATOM      5  O   ILE A   6      29.777  28.451  17.244  0.00  0.00    -0.273 OA
BRANCH   3   6
ATOM      6  CA  ILE A   7      29.275  26.732  19.399  0.00  0.00    +0.149 C 
BRANCH   6   7
ATOM      7  C   ILE A   7      28.060  25.899  19.007  0.00  0.00    +0.241 C 
ATOM      8  O   ILE A   7      27.058  25.883  19.730  0.00  0.00    -0.273 OA
ATOM      9  N   GLY A   8      28.159  25.190  17.886  0.00  0.00    -0.295 N 
ATOM     10  H   GLY A   8      29.036  25.248  17.330  0.00  0.00    +0.150 HD
BRANCH   9  11
ATOM     11  CA  GLY A   8      27.068  24.327  17.408  0.00  0.00    +0.176 C 
BRANCH  11  12
ATOM     12  C   GLY A   8      27.170  22.862  17.784  0.00  0.00    +0.243 C 
ATOM     13  O   GLY A   8      28.079  22.465  18.505  0.00  0.00    -0.273 OA
ATOM     14  N   ARG A   9      26.269  22.042  17.244  0.00  0.00    -0.297 N 
ATOM     15  H   ARG A   9      25.639  22.405  16.500  0.00  0.00    +0.150 HD
BRANCH  14  16
ATOM     16  CA  ARG A   9      26.138  20.647  17.665  0.00  0.00    +0.149 C 
BRANCH  16  17
ATOM     17  C   ARG A   9      27.393  19.802  17.407  0.00  0.00    +0.241 C 
ATOM     18  O   ARG A   9      27.684  18.866  18.148  0.00  0.00    -0.273 OA
ATOM     19  N   ASN A  10      28.135  20.112  16.356  0.00  0.00    -0.298 N 
ATOM     20  H   ASN A  10      27.863  20.909  15.746  0.00  0.00    +0.150 HD
BRANCH  19  21
ATOM     21  CA  ASN A  10      29.334  19.339  16.051  0.00  0.00    +0.146 C 
BRANCH  21  22
ATOM     22  C   ASN A  10      30.321  19.321  17.225  0.00  0.00    +0.227 C 
ATOM     23  O   ASN A  10      30.970  18.319  17.467  0.00  0.00    -0.286 OA
ENDBRANCH  21  22
BRANCH  21  24
ATOM     24  CB  ASN A  10      29.990  19.868  14.764  0.00  0.00    +0.112 C 
BRANCH  24  25
ATOM     25  CG  ASN A  10      30.660  21.210  14.963  0.00  0.00    +0.222 C 
ATOM     26  OD1 ASN A  10      30.027  22.180  15.407  0.00  0.00    -0.275 OA
ATOM     27  ND2 ASN A  10      31.950  21.276  14.640  0.00  0.00    -0.329 N 
ATOM     28 HD21 ASN A  10      32.470  22.169  14.757  0.00  0.00    +0.145 HD
ATOM     29 HD22 ASN A  10      32.437  20.435  14.271  0.00  0.00    +0.145 HD
ENDBRANCH  24  25
ENDBRANCH  21  24
ENDBRANCH  19  21
ENDBRANCH  16  17
BRANCH  16  30
ATOM     30  CB  ARG A   9      24.906  19.985  17.025  0.00  0.00    +0.033 C 
BRANCH  30  31
ATOM     31  CG  ARG A   9      23.578  20.514  17.593  0.00  0.00    +0.045 C 
BRANCH  31  32
ATOM     32  CD  ARG A   9      22.352  19.817  17.032  0.00  0.00    +0.174 C 
BRANCH  32  33
ATOM     33  NE  ARG A   9      22.313  19.886  15.571  0.00  0.00    -0.265 N 
ATOM     34  HE  ARG A   9      21.941  20.755  15.138  0.00  0.00    +0.259 HD
ATOM     35  CZ  ARG A   9      22.720  18.915  14.756  0.00  0.00    +0.342 C 
ATOM     36  NH2 ARG A   9      23.174  17.757  15.228  0.00  0.00    -0.292 N 
ATOM     37 HH21 ARG A   9      23.217  17.595  16.254  0.00  0.00    +0.255 HD
ATOM     38 HH22 ARG A   9      23.486  17.014  14.571  0.00  0.00    +0.255 HD
ATOM     39  NH1 ARG A   9      22.685  19.111  13.451  0.00  0.00    -0.292 N 
ATOM     40 HH11 ARG A   9      22.342  20.016  13.070  0.00  0.00    +0.255 HD
ATOM     41 HH12 ARG A   9      23.000  18.360  12.804  0.00  0.00    +0.255 HD
ENDBRANCH  32  33
ENDBRANCH  31  32
ENDBRANCH  30  31
ENDBRANCH  16  30
ENDBRANCH  14  16
ENDBRANCH  11  12
ENDBRANCH   9  11
ENDBRANCH   6   7
BRANCH   6  42
ATOM     42  CB  ILE A   7      29.677  26.325  20.830  0.00  0.00    +0.027 C 
ATOM     43  CG2 ILE A   7      30.105  24.865  20.848  0.00  0.00    +0.002 C 
BRANCH  42  44
ATOM     44  CG1 ILE A   7      30.787  27.238  21.390  0.00  0.00    +0.002 C 
ATOM     45  CD1 ILE A   7      32.042  27.367  20.485  0.00  0.00    +0.000 C 
ENDBRANCH  42  44
ENDBRANCH   6  42
ENDBRANCH   3   6
ENDBRANCH   1   2
BRANCH   1  48
ATOM     46  C   ASN A   5      29.388  32.378  18.467  0.00  0.00    +0.241 C 
ATOM     47  O   ASN A   5      28.728  32.532  19.496  0.00  0.00    -0.273 OA
ATOM     48  N   ILE A   6      29.286  31.288  17.726  0.00  0.00    -0.297 N 
ATOM     49  H   ILE A   6      29.812  31.204  16.833  0.00  0.00    +0.150 HD
BRANCH  46  50
ATOM     50  CA  ASN A   5      30.346  33.460  17.990  0.00  0.00    +0.158 C 
BRANCH  50  52
ATOM     51  C   VAL A   4      28.579  34.893  17.114  0.00  0.00    +0.241 C 
ATOM     52  N   ASN A   5      29.638  34.737  17.902  0.00  0.00    -0.297 N 
ATOM     53  H   ASN A   5      29.971  35.542  18.470  0.00  0.00    +0.150 HD
ATOM     54  O   VAL A   4      28.288  34.084  16.227  0.00  0.00    -0.273 OA
BRANCH  51  55
ATOM     55  CA  VAL A   4      27.778  36.191  17.274  0.00  0.00    +0.149 C 
BRANCH  55  58
ATOM     56  C   PRO A   3      26.934  37.815  15.659  0.00  0.00    +0.241 C 
ATOM     57  O   PRO A   3      27.176  38.757  16.401  0.00  0.00    -0.273 OA
ATOM     58  N   VAL A   4      27.175  36.550  15.988  0.00  0.00    -0.297 N 
ATOM     59  H   VAL A   4      26.929  35.796  15.315  0.00  0.00    +0.150 HD
BRANCH  56  62
ATOM     60  C   THR A   2      27.738  36.740  12.908  0.00  0.00    +0.246 C 
ATOM     61  N   PRO A   3      26.497  37.034  13.319  0.00  0.00    -0.272 N 
ATOM     62  CA  PRO A   3      26.265  38.078  14.319  0.00  0.00    +0.152 C 
ATOM     63  CB  PRO A   3      24.743  38.083  14.516  0.00  0.00    +0.031 C 
ATOM     64  CG  PRO A   3      24.174  37.252  13.421  0.00  0.00    +0.024 C 
ATOM     65  CD  PRO A   3      25.249  36.401  12.850  0.00  0.00    +0.094 C 
ATOM     66  O   THR A   2      28.709  37.431  13.208  0.00  0.00    -0.273 OA
BRANCH  60  67
ATOM     67  CA  THR A   2      27.895  35.524  11.989  0.00  0.00    +0.176 C 
BRANCH  67  69
ATOM     68  C   PRO A   1      28.708  36.621   9.972  0.00  0.00    +0.239 C 
ATOM     69  N   THR A   2      28.920  35.810  10.997  0.00  0.00    -0.295 N 
ATOM     70  H   THR A   2      29.853  35.361  11.097  0.00  0.00    +0.150 HD
ATOM     71  O   PRO A   1      27.589  36.939   9.597  0.00  0.00    -0.274 OA
BRANCH  68  73
ATOM     72  N   PRO A   1      30.757  36.007   8.677  0.00  0.00    -0.210 NA
ATOM     73  CA  PRO A   1      29.952  37.097   9.233  0.00  0.00    +0.149 C 
ATOM     74  CB  PRO A   1      29.605  37.931   7.993  0.00  0.00    +0.028 C 
ATOM     75  CG  PRO A   1      29.528  36.937   6.904  0.00  0.00    +0.021 C 
ATOM     76  CD  PRO A   1      30.562  35.883   7.219  0.00  0.00    +0.089 C 
ENDBRANCH  68  73
ENDBRANCH  67  69
BRANCH  67  77
ATOM     77  CB  THR A   2      28.219  34.213  12.786  0.00  0.00    +0.137 C 
ATOM     78  CG2 THR A   2      29.617  34.231  13.416  0.00  0.00    +0.034 C 
BRANCH  77  79
ATOM     79  OG1 THR A   2      27.239  34.004  13.812  0.00  0.00    -0.382 OA
ATOM     80  HG1 THR A   2      27.246  34.773  14.435  0.00  0.00    +0.210 HD
ENDBRANCH  77  79
ENDBRANCH  67  77
ENDBRANCH  60  67
ENDBRANCH  56  62
ENDBRANCH  55  58
BRANCH  55  81
ATOM     81  CB  VAL A   4      26.678  36.079  18.373  0.00  0.00    +0.027 C 
ATOM     82  CG2 VAL A   4      27.254  35.811  19.755  0.00  0.00    +0.002 C 
ATOM     83  CG1 VAL A   4      25.670  35.018  18.024  0.00  0.00    +0.002 C 
ENDBRANCH  55  81
ENDBRANCH  51  55
ENDBRANCH  50  52
BRANCH  50  84
ATOM     84  CB  ASN A   5      31.509  33.534  18.993  0.00  0.00    +0.114 C 
BRANCH  84  85
ATOM     85  CG  ASN A   5      32.609  34.460  18.552  0.00  0.00    +0.222 C 
ATOM     86  ND2 ASN A   5      33.196  35.160  19.515  0.00  0.00    -0.329 N 
ATOM     87 HD21 ASN A   5      32.882  35.054  20.501  0.00  0.00    +0.145 HD
ATOM     88 HD22 ASN A   5      33.970  35.815  19.284  0.00  0.00    +0.145 HD
ATOM     89  OD1 ASN A   5      32.939  34.544  17.363  0.00  0.00    -0.275 OA
ENDBRANCH  84  85
ENDBRANCH  50  84
ENDBRANCH  46  50
ENDBRANCH   1  48
BRANCH   1  90
ATOM     90  CB  ILE A   6      27.089  30.129  17.414  0.00  0.00    +0.027 C 
ATOM     91  CG2 ILE A   6      26.214  31.365  17.637  0.00  0.00    +0.002 C 
BRANCH  90  92
ATOM     92  CG1 ILE A   6      27.305  29.941  15.935  0.00  0.00    +0.002 C 
ATOM     93  CD1 ILE A   6      26.460  28.839  15.438  0.00  0.00    +0.000 C 
ENDBRANCH  90  92
ENDBRANCH   1  90
TORSDOF 33
REMARK  Name = ../refined-set-2016/2qi0/2qi0_pocket.pdb
REMARK  223 active torsions:
REMARK  status: ('A' for Active; 'I' for Inactive)
REMARK    1  A    between atoms: _1  and  _3
REMARK    2  A    between atoms: _3  and  _4
REMARK    3  A    between atoms: _3  and  _6
REMARK    4  A    between atoms: _6  and  _7
REMARK    5  A    between atoms: _7  and  _8
REMARK    6  A    between atoms: _8  and  _9
REMARK    7  A    between atoms: _18  and  _20
REMARK    8  A    between atoms: _20  and  _21
REMARK    9  A    between atoms: _20  and  _23
REMARK   10  A    between atoms: _23  and  _24
REMARK   11  A    between atoms: _27  and  _29
REMARK   12  A    between atoms: _29  and  _30
REMARK   13  A    between atoms: _29  and  _32
REMARK   14  A    between atoms: _32  and  _33
REMARK   15  A    between atoms: _36  and  _38
REMARK   16  A    between atoms: _38  and  _39
REMARK   17  A    between atoms: _38  and  _41
REMARK   18  A    between atoms: _41  and  _42
REMARK   19  A    between atoms: _45  and  _47
REMARK   20  A    between atoms: _47  and  _48
REMARK   21  A    between atoms: _47  and  _50
REMARK   22  A    between atoms: _50  and  _51
REMARK   23  A    between atoms: _54  and  _56
REMARK   24  A    between atoms: _56  and  _57
REMARK   25  A    between atoms: _59  and  _61
REMARK   26  A    between atoms: _61  and  _62
REMARK   27  A    between atoms: _65  and  _67
REMARK   28  A    between atoms: _67  and  _68
REMARK   29  A    between atoms: _67  and  _70
REMARK   30  A    between atoms: _70  and  _71
REMARK   31  A    between atoms: _74  and  _76
REMARK   32  A    between atoms: _76  and  _77
REMARK   33  A    between atoms: _76  and  _79
REMARK   34  A    between atoms: _79  and  _80
REMARK   35  A    between atoms: _83  and  _85
REMARK   36  A    between atoms: _85  and  _86
REMARK   37  A    between atoms: _85  and  _88
REMARK   38  A    between atoms: _88  and  _89
REMARK   39  A    between atoms: _92  and  _94
REMARK   40  A    between atoms: _94  and  _95
REMARK   41  A    between atoms: _94  and  _97
REMARK   42  A    between atoms: _100  and  _102
REMARK   43  A    between atoms: _102  and  _103
REMARK   44  A    between atoms: _102  and  _105
REMARK   45  A    between atoms: _105  and  _106
REMARK   46  A    between atoms: _109  and  _111
REMARK   47  A    between atoms: _111  and  _112
REMARK   48  A    between atoms: _111  and  _114
REMARK   49  A    between atoms: _114  and  _115
REMARK   50  A    between atoms: _115  and  _116
REMARK   51  A    between atoms: _118  and  _120
REMARK   52  A    between atoms: _120  and  _121
REMARK   53  A    between atoms: _120  and  _123
REMARK   54  A    between atoms: _123  and  _124
REMARK   55  A    between atoms: _127  and  _129
REMARK   56  A    between atoms: _129  and  _130
REMARK   57  A    between atoms: _132  and  _134
REMARK   58  A    between atoms: _134  and  _135
REMARK   59  A    between atoms: _137  and  _139
REMARK   60  A    between atoms: _139  and  _140
REMARK   61  A    between atoms: _139  and  _142
REMARK   62  A    between atoms: _142  and  _143
REMARK   63  A    between atoms: _146  and  _148
REMARK   64  A    between atoms: _148  and  _149
REMARK   65  A    between atoms: _151  and  _153
REMARK   66  A    between atoms: _153  and  _154
REMARK   67  A    between atoms: _156  and  _158
REMARK   68  A    between atoms: _158  and  _159
REMARK   69  A    between atoms: _158  and  _161
REMARK   70  A    between atoms: _161  and  _162
REMARK   71  A    between atoms: _165  and  _167
REMARK   72  A    between atoms: _167  and  _168
REMARK   73  A    between atoms: _167  and  _170
REMARK   74  A    between atoms: _173  and  _175
REMARK   75  A    between atoms: _175  and  _176
REMARK   76  A    between atoms: _175  and  _178
REMARK   77  A    between atoms: _178  and  _179
REMARK   78  A    between atoms: _183  and  _184
REMARK   79  A    between atoms: _189  and  _191
REMARK   80  A    between atoms: _191  and  _192
REMARK   81  A    between atoms: _191  and  _194
REMARK   82  A    between atoms: _194  and  _195
REMARK   83  A    between atoms: _199  and  _200
REMARK   84  A    between atoms: _205  and  _207
REMARK   85  A    between atoms: _207  and  _208
REMARK   86  A    between atoms: _207  and  _210
REMARK   87  A    between atoms: _213  and  _215
REMARK   88  A    between atoms: _215  and  _216
REMARK   89  A    between atoms: _215  and  _218
REMARK   90  A    between atoms: _218  and  _219
REMARK   91  A    between atoms: _224  and  _226
REMARK   92  A    between atoms: _226  and  _227
REMARK   93  A    between atoms: _226  and  _229
REMARK   94  A    between atoms: _229  and  _230
REMARK   95  A    between atoms: _233  and  _235
REMARK   96  A    between atoms: _235  and  _236
REMARK   97  A    between atoms: _235  and  _238
REMARK   98  A    between atoms: _238  and  _239
REMARK   99  A    between atoms: _242  and  _244
REMARK  100  A    between atoms: _244  and  _245
REMARK  101  A    between atoms: _247  and  _249
REMARK  102  A    between atoms: _249  and  _250
REMARK  103  A    between atoms: _249  and  _252
REMARK  104  A    between atoms: _252  and  _253
REMARK  105  A    between atoms: _253  and  _254
REMARK  106  A    between atoms: _254  and  _255
REMARK  107  A    between atoms: _264  and  _266
REMARK  108  A    between atoms: _266  and  _267
REMARK  109  A    between atoms: _266  and  _269
REMARK  110  A    between atoms: _269  and  _270
REMARK  111  A    between atoms: _275  and  _277
REMARK  112  A    between atoms: _277  and  _278
REMARK  113  A    between atoms: _277  and  _280
REMARK  114  A    between atoms: _280  and  _281
REMARK  115  A    between atoms: _281  and  _282
REMARK  116  A    between atoms: _282  and  _283
REMARK  117  A    between atoms: _292  and  _294
REMARK  118  A    between atoms: _294  and  _295
REMARK  119  A    between atoms: _294  and  _297
REMARK  120  A    between atoms: _297  and  _298
REMARK  121  A    between atoms: _301  and  _303
REMARK  122  A    between atoms: _303  and  _304
REMARK  123  A    between atoms: _303  and  _306
REMARK  124  A    between atoms: _306  and  _307
REMARK  125  A    between atoms: _310  and  _312
REMARK  126  A    between atoms: _312  and  _313
REMARK  127  A    between atoms: _312  and  _315
REMARK  128  A    between atoms: _315  and  _316
REMARK  129  A    between atoms: _319  and  _321
REMARK  130  A    between atoms: _321  and  _322
REMARK  131  A    between atoms: _321  and  _324
REMARK  132  A    between atoms: _324  and  _325
REMARK  133  A    between atoms: _328  and  _330
REMARK  134  A    between atoms: _330  and  _331
REMARK  135  A    between atoms: _333  and  _335
REMARK  136  A    between atoms: _335  and  _336
REMARK  137  A    between atoms: _339  and  _341
REMARK  138  A    between atoms: _341  and  _342
REMARK  139  A    between atoms: _341  and  _344
REMARK  140  A    between atoms: _344  and  _345
REMARK  141  A    between atoms: _348  and  _350
REMARK  142  A    between atoms: _350  and  _351
REMARK  143  A    between atoms: _350  and  _353
REMARK  144  A    between atoms: _353  and  _354
REMARK  145  A    between atoms: _357  and  _359
REMARK  146  A    between atoms: _359  and  _360
REMARK  147  A    between atoms: _359  and  _362
REMARK  148  A    between atoms: _362  and  _363
REMARK  149  A    between atoms: _366  and  _368
REMARK  150  A    between atoms: _368  and  _369
REMARK  151  A    between atoms: _368  and  _371
REMARK  152  A    between atoms: _374  and  _376
REMARK  153  A    between atoms: _376  and  _377
REMARK  154  A    between atoms: _376  and  _379
REMARK  155  A    between atoms: _379  and  _380
REMARK  156  A    between atoms: _380  and  _381
REMARK  157  A    between atoms: _381  and  _382
REMARK  158  A    between atoms: _382  and  _383
REMARK  159  A    between atoms: _387  and  _389
REMARK  160  A    between atoms: _389  and  _390
REMARK  161  A    between atoms: _389  and  _392
REMARK  162  A    between atoms: _392  and  _393
REMARK  163  A    between atoms: _393  and  _394
REMARK  164  A    between atoms: _396  and  _398
REMARK  165  A    between atoms: _398  and  _399
REMARK  166  A    between atoms: _398  and  _401
REMARK  167  A    between atoms: _401  and  _402
REMARK  168  A    between atoms: _405  and  _407
REMARK  169  A    between atoms: _407  and  _408
REMARK  170  A    between atoms: _410  and  _412
REMARK  171  A    between atoms: _412  and  _413
REMARK  172  A    between atoms: _415  and  _417
REMARK  173  A    between atoms: _417  and  _418
REMARK  174  A    between atoms: _417  and  _420
REMARK  175  A    between atoms: _420  and  _421
REMARK  176  A    between atoms: _424  and  _426
REMARK  177  A    between atoms: _426  and  _427
REMARK  178  A    between atoms: _429  and  _431
REMARK  179  A    between atoms: _431  and  _432
REMARK  180  A    between atoms: _434  and  _436
REMARK  181  A    between atoms: _436  and  _437
REMARK  182  A    between atoms: _436  and  _439
REMARK  183  A    between atoms: _439  and  _440
REMARK  184  A    between atoms: _446  and  _448
REMARK  185  A    between atoms: _448  and  _449
REMARK  186  A    between atoms: _448  and  _451
REMARK  187  A    between atoms: _451  and  _452
REMARK  188  A    between atoms: _455  and  _457
REMARK  189  A    between atoms: _457  and  _458
REMARK  190  A    between atoms: _457  and  _460
REMARK  191  A    between atoms: _460  and  _461
REMARK  192  A    between atoms: _464  and  _466
REMARK  193  A    between atoms: _466  and  _467
REMARK  194  A    between atoms: _466  and  _469
REMARK  195  A    between atoms: _469  and  _470
REMARK  196  A    between atoms: _474  and  _475
REMARK  197  A    between atoms: _480  and  _482
REMARK  198  A    between atoms: _482  and  _483
REMARK  199  A    between atoms: _482  and  _485
REMARK  200  A    between atoms: _488  and  _490
REMARK  201  A    between atoms: _490  and  _491
REMARK  202  A    between atoms: _490  and  _493
REMARK  203  A    between atoms: _493  and  _494
REMARK  204  A    between atoms: _499  and  _501
REMARK  205  A    between atoms: _501  and  _502
REMARK  206  A    between atoms: _501  and  _504
REMARK  207  A    between atoms: _504  and  _505
REMARK  208  A    between atoms: _508  and  _510
REMARK  209  A    between atoms: _510  and  _511
REMARK  210  A    between atoms: _510  and  _513
REMARK  211  A    between atoms: _513  and  _514
REMARK  212  A    between atoms: _517  and  _519
REMARK  213  A    between atoms: _519  and  _520
REMARK  214  A    between atoms: _522  and  _524
REMARK  215  A    between atoms: _524  and  _525
REMARK  216  A    between atoms: _524  and  _527
REMARK  217  A    between atoms: _527  and  _528
REMARK  218  A    between atoms: _528  and  _529
REMARK  219  A    between atoms: _529  and  _530
REMARK  220  A    between atoms: _539  and  _541
REMARK  221  A    between atoms: _541  and  _542
REMARK  222  A    between atoms: _541  and  _544
REMARK  223  A    between atoms: _544  and  _545
REMARK                            x       y       z     vdW  Elec       q    Type
REMARK                         _______ _______ _______ _____ _____    ______ ____
ROOT
ATOM      1  NE  ARG A   1      19.010  21.145  11.248  0.00  0.00    -0.265 N 
ATOM      2  HE  ARG A   1      20.036  20.984  11.291  0.00  0.00    +0.259 HD
ATOM      3  CZ  ARG A   1      18.563  22.093  10.421  0.00  0.00    +0.342 C 
ATOM      4  NH2 ARG A   1      17.260  22.333  10.307  0.00  0.00    -0.292 N 
ATOM      5 HH21 ARG A   1      16.579  21.780  10.865  0.00  0.00    +0.255 HD
ATOM      6 HH22 ARG A   1      16.922  23.074   9.660  0.00  0.00    +0.255 HD
ATOM      7  NH1 ARG A   1      19.421  22.805   9.689  0.00  0.00    -0.292 N 
ATOM      8 HH11 ARG A   1      20.442  22.623   9.761  0.00  0.00    +0.255 HD
ATOM      9 HH12 ARG A   1      19.069  23.543   9.046  0.00  0.00    +0.255 HD
ENDROOT
BRANCH   1  10
ATOM     10  CD  ARG A   1      18.150  20.315  12.101  0.00  0.00    +0.174 C 
BRANCH  10  11
ATOM     11  CG  ARG A   1      18.953  19.586  13.183  0.00  0.00    +0.045 C 
BRANCH  11  12
ATOM     12  CB  ARG A   1      18.036  18.964  14.227  0.00  0.00    +0.029 C 
BRANCH  12  13
ATOM     13  CA  ARG A   1      18.774  18.366  15.423  0.00  0.00    +0.133 C 
BRANCH  13  14
ATOM     14  N   ARG A   1      19.522  17.206  15.013  0.00  0.00    -0.239 NA
ATOM     15  H   ARG A   1      19.553  16.959  14.003  0.00  0.00    +0.142 HD
ENDBRANCH  13  14
BRANCH  13  16
ATOM     16  C   ARG A   1      17.775  17.996  16.519  0.00  0.00    +0.224 C 
ATOM     17  O   ARG A   1      17.030  17.030  16.390  0.00  0.00    -0.287 OA
ENDBRANCH  13  16
ENDBRANCH  12  13
ENDBRANCH  11  12
ENDBRANCH  10  11
ENDBRANCH   1  10
TORSDOF 6
REMARK  Name = ../refined-set-2016/2qi0/2qi0_pocket.pdb
REMARK  223 active torsions:
REMARK  status: ('A' for Active; 'I' for Inactive)
REMARK    1  A    between atoms: _1  and  _3
REMARK    2  A    between atoms: _3  and  _4
REMARK    3  A    between atoms: _3  and  _6
REMARK    4  A    between atoms: _6  and  _7
REMARK    5  A    between atoms: _7  and  _8
REMARK    6  A    between atoms: _8  and  _9
REMARK    7  A    between atoms: _18  and  _20
REMARK    8  A    between atoms: _20  and  _21
REMARK    9  A    between atoms: _20  and  _23
REMARK   10  A    between atoms: _23  and  _24
REMARK   11  A    between atoms: _27  and  _29
REMARK   12  A    between atoms: _29  and  _30
REMARK   13  A    between atoms: _29  and  _32
REMARK   14  A    between atoms: _32  and  _33
REMARK   15  A    between atoms: _36  and  _38
REMARK   16  A    between atoms: _38  and  _39
REMARK   17  A    between atoms: _38  and  _41
REMARK   18  A    between atoms: _41  and  _42
REMARK   19  A    between atoms: _45  and  _47
REMARK   20  A    between atoms: _47  and  _48
REMARK   21  A    between atoms: _47  and  _50
REMARK   22  A    between atoms: _50  and  _51
REMARK   23  A    between atoms: _54  and  _56
REMARK   24  A    between atoms: _56  and  _57
REMARK   25  A    between atoms: _59  and  _61
REMARK   26  A    between atoms: _61  and  _62
REMARK   27  A    between atoms: _65  and  _67
REMARK   28  A    between atoms: _67  and  _68
REMARK   29  A    between atoms: _67  and  _70
REMARK   30  A    between atoms: _70  and  _71
REMARK   31  A    between atoms: _74  and  _76
REMARK   32  A    between atoms: _76  and  _77
REMARK   33  A    between atoms: _76  and  _79
REMARK   34  A    between atoms: _79  and  _80
REMARK   35  A    between atoms: _83  and  _85
REMARK   36  A    between atoms: _85  and  _86
REMARK   37  A    between atoms: _85  and  _88
REMARK   38  A    between atoms: _88  and  _89
REMARK   39  A    between atoms: _92  and  _94
REMARK   40  A    between atoms: _94  and  _95
REMARK   41  A    between atoms: _94  and  _97
REMARK   42  A    between atoms: _100  and  _102
REMARK   43  A    between atoms: _102  and  _103
REMARK   44  A    between atoms: _102  and  _105
REMARK   45  A    between atoms: _105  and  _106
REMARK   46  A    between atoms: _109  and  _111
REMARK   47  A    between atoms: _111  and  _112
REMARK   48  A    between atoms: _111  and  _114
REMARK   49  A    between atoms: _114  and  _115
REMARK   50  A    between atoms: _115  and  _116
REMARK   51  A    between atoms: _118  and  _120
REMARK   52  A    between atoms: _120  and  _121
REMARK   53  A    between atoms: _120  and  _123
REMARK   54  A    between atoms: _123  and  _124
REMARK   55  A    between atoms: _127  and  _129
REMARK   56  A    between atoms: _129  and  _130
REMARK   57  A    between atoms: _132  and  _134
REMARK   58  A    between atoms: _134  and  _135
REMARK   59  A    between atoms: _137  and  _139
REMARK   60  A    between atoms: _139  and  _140
REMARK   61  A    between atoms: _139  and  _142
REMARK   62  A    between atoms: _142  and  _143
REMARK   63  A    between atoms: _146  and  _148
REMARK   64  A    between atoms: _148  and  _149
REMARK   65  A    between atoms: _151  and  _153
REMARK   66  A    between atoms: _153  and  _154
REMARK   67  A    between atoms: _156  and  _158
REMARK   68  A    between atoms: _158  and  _159
REMARK   69  A    between atoms: _158  and  _161
REMARK   70  A    between atoms: _161  and  _162
REMARK   71  A    between atoms: _165  and  _167
REMARK   72  A    between atoms: _167  and  _168
REMARK   73  A    between atoms: _167  and  _170
REMARK   74  A    between atoms: _173  and  _175
REMARK   75  A    between atoms: _175  and  _176
REMARK   76  A    between atoms: _175  and  _178
REMARK   77  A    between atoms: _178  and  _179
REMARK   78  A    between atoms: _183  and  _184
REMARK   79  A    between atoms: _189  and  _191
REMARK   80  A    between atoms: _191  and  _192
REMARK   81  A    between atoms: _191  and  _194
REMARK   82  A    between atoms: _194  and  _195
REMARK   83  A    between atoms: _199  and  _200
REMARK   84  A    between atoms: _205  and  _207
REMARK   85  A    between atoms: _207  and  _208
REMARK   86  A    between atoms: _207  and  _210
REMARK   87  A    between atoms: _213  and  _215
REMARK   88  A    between atoms: _215  and  _216
REMARK   89  A    between atoms: _215  and  _218
REMARK   90  A    between atoms: _218  and  _219
REMARK   91  A    between atoms: _224  and  _226
REMARK   92  A    between atoms: _226  and  _227
REMARK   93  A    between atoms: _226  and  _229
REMARK   94  A    between atoms: _229  and  _230
REMARK   95  A    between atoms: _233  and  _235
REMARK   96  A    between atoms: _235  and  _236
REMARK   97  A    between atoms: _235  and  _238
REMARK   98  A    between atoms: _238  and  _239
REMARK   99  A    between atoms: _242  and  _244
REMARK  100  A    between atoms: _244  and  _245
REMARK  101  A    between atoms: _247  and  _249
REMARK  102  A    between atoms: _249  and  _250
REMARK  103  A    between atoms: _249  and  _252
REMARK  104  A    between atoms: _252  and  _253
REMARK  105  A    between atoms: _253  and  _254
REMARK  106  A    between atoms: _254  and  _255
REMARK  107  A    between atoms: _264  and  _266
REMARK  108  A    between atoms: _266  and  _267
REMARK  109  A    between atoms: _266  and  _269
REMARK  110  A    between atoms: _269  and  _270
REMARK  111  A    between atoms: _275  and  _277
REMARK  112  A    between atoms: _277  and  _278
REMARK  113  A    between atoms: _277  and  _280
REMARK  114  A    between atoms: _280  and  _281
REMARK  115  A    between atoms: _281  and  _282
REMARK  116  A    between atoms: _282  and  _283
REMARK  117  A    between atoms: _292  and  _294
REMARK  118  A    between atoms: _294  and  _295
REMARK  119  A    between atoms: _294  and  _297
REMARK  120  A    between atoms: _297  and  _298
REMARK  121  A    between atoms: _301  and  _303
REMARK  122  A    between atoms: _303  and  _304
REMARK  123  A    between atoms: _303  and  _306
REMARK  124  A    between atoms: _306  and  _307
REMARK  125  A    between atoms: _310  and  _312
REMARK  126  A    between atoms: _312  and  _313
REMARK  127  A    between atoms: _312  and  _315
REMARK  128  A    between atoms: _315  and  _316
REMARK  129  A    between atoms: _319  and  _321
REMARK  130  A    between atoms: _321  and  _322
REMARK  131  A    between atoms: _321  and  _324
REMARK  132  A    between atoms: _324  and  _325
REMARK  133  A    between atoms: _328  and  _330
REMARK  134  A    between atoms: _330  and  _331
REMARK  135  A    between atoms: _333  and  _335
REMARK  136  A    between atoms: _335  and  _336
REMARK  137  A    between atoms: _339  and  _341
REMARK  138  A    between atoms: _341  and  _342
REMARK  139  A    between atoms: _341  and  _344
REMARK  140  A    between atoms: _344  and  _345
REMARK  141  A    between atoms: _348  and  _350
REMARK  142  A    between atoms: _350  and  _351
REMARK  143  A    between atoms: _350  and  _353
REMARK  144  A    between atoms: _353  and  _354
REMARK  145  A    between atoms: _357  and  _359
REMARK  146  A    between atoms: _359  and  _360
REMARK  147  A    between atoms: _359  and  _362
REMARK  148  A    between atoms: _362  and  _363
REMARK  149  A    between atoms: _366  and  _368
REMARK  150  A    between atoms: _368  and  _369
REMARK  151  A    between atoms: _368  and  _371
REMARK  152  A    between atoms: _374  and  _376
REMARK  153  A    between atoms: _376  and  _377
REMARK  154  A    between atoms: _376  and  _379
REMARK  155  A    between atoms: _379  and  _380
REMARK  156  A    between atoms: _380  and  _381
REMARK  157  A    between atoms: _381  and  _382
REMARK  158  A    between atoms: _382  and  _383
REMARK  159  A    between atoms: _387  and  _389
REMARK  160  A    between atoms: _389  and  _390
REMARK  161  A    between atoms: _389  and  _392
REMARK  162  A    between atoms: _392  and  _393
REMARK  163  A    between atoms: _393  and  _394
REMARK  164  A    between atoms: _396  and  _398
REMARK  165  A    between atoms: _398  and  _399
REMARK  166  A    between atoms: _398  and  _401
REMARK  167  A    between atoms: _401  and  _402
REMARK  168  A    between atoms: _405  and  _407
REMARK  169  A    between atoms: _407  and  _408
REMARK  170  A    between atoms: _410  and  _412
REMARK  171  A    between atoms: _412  and  _413
REMARK  172  A    between atoms: _415  and  _417
REMARK  173  A    between atoms: _417  and  _418
REMARK  174  A    between atoms: _417  and  _420
REMARK  175  A    between atoms: _420  and  _421
REMARK  176  A    between atoms: _424  and  _426
REMARK  177  A    between atoms: _426  and  _427
REMARK  178  A    between atoms: _429  and  _431
REMARK  179  A    between atoms: _431  and  _432
REMARK  180  A    between atoms: _434  and  _436
REMARK  181  A    between atoms: _436  and  _437
REMARK  182  A    between atoms: _436  and  _439
REMARK  183  A    between atoms: _439  and  _440
REMARK  184  A    between atoms: _446  and  _448
REMARK  185  A    between atoms: _448  and  _449
REMARK  186  A    between atoms: _448  and  _451
REMARK  187  A    between atoms: _451  and  _452
REMARK  188  A    between atoms: _455  and  _457
REMARK  189  A    between atoms: _457  and  _458
REMARK  190  A    between atoms: _457  and  _460
REMARK  191  A    between atoms: _460  and  _461
REMARK  192  A    between atoms: _464  and  _466
REMARK  193  A    between atoms: _466  and  _467
REMARK  194  A    between atoms: _466  and  _469
REMARK  195  A    between atoms: _469  and  _470
REMARK  196  A    between atoms: _474  and  _475
REMARK  197  A    between atoms: _480  and  _482
REMARK  198  A    between atoms: _482  and  _483
REMARK  199  A    between atoms: _482  and  _485
REMARK  200  A    between atoms: _488  and  _490
REMARK  201  A    between atoms: _490  and  _491
REMARK  202  A    between atoms: _490  and  _493
REMARK  203  A    between atoms: _493  and  _494
REMARK  204  A    between atoms: _499  and  _501
REMARK  205  A    between atoms: _501  and  _502
REMARK  206  A    between atoms: _501  and  _504
REMARK  207  A    between atoms: _504  and  _505
REMARK  208  A    between atoms: _508  and  _510
REMARK  209  A    between atoms: _510  and  _511
REMARK  210  A    between atoms: _510  and  _513
REMARK  211  A    between atoms: _513  and  _514
REMARK  212  A    between atoms: _517  and  _519
REMARK  213  A    between atoms: _519  and  _520
REMARK  214  A    between atoms: _522  and  _524
REMARK  215  A    between atoms: _524  and  _525
REMARK  216  A    between atoms: _524  and  _527
REMARK  217  A    between atoms: _527  and  _528
REMARK  218  A    between atoms: _528  and  _529
REMARK  219  A    between atoms: _529  and  _530
REMARK  220  A    between atoms: _539  and  _541
REMARK  221  A    between atoms: _541  and  _542
REMARK  222  A    between atoms: _541  and  _544
REMARK  223  A    between atoms: _544  and  _545
REMARK                            x       y       z     vdW  Elec       q    Type
REMARK                         _______ _______ _______ _____ _____    ______ ____
ROOT
ATOM      1  C   GLY A   5      19.741  31.195  20.176  0.00  0.00    +0.243 C 
ATOM      2  N   ALA A   6      18.454  30.894  20.338  0.00  0.00    -0.297 N 
ATOM      3  H   ALA A   6      18.203  29.962  20.725  0.00  0.00    +0.150 HD
ATOM      4  O   GLY A   5      20.124  32.265  19.698  0.00  0.00    -0.273 OA
ENDROOT
BRANCH   2   5
ATOM      5  CA  ALA A   6      17.379  31.827  19.992  0.00  0.00    +0.149 C 
ATOM      6  CB  ALA A   6      16.304  31.113  19.231  0.00  0.00    +0.031 C 
BRANCH   5   7
ATOM      7  C   ALA A   6      16.764  32.494  21.224  0.00  0.00    +0.241 C 
ATOM      8  O   ALA A   6      16.257  31.809  22.116  0.00  0.00    -0.273 OA
ATOM      9  N   ASP A   7      16.770  33.824  21.264  0.00  0.00    -0.297 N 
ATOM     10  H   ASP A   7      17.186  34.361  20.476  0.00  0.00    +0.150 HD
BRANCH   9  11
ATOM     11  CA  ASP A   7      16.196  34.541  22.407  0.00  0.00    +0.160 C 
BRANCH  11  12
ATOM     12  C   ASP A   7      14.698  34.331  22.377  0.00  0.00    +0.241 C 
ATOM     13  O   ASP A   7      14.043  34.276  23.419  0.00  0.00    -0.273 OA
ATOM     14  N   ASP A   8      14.180  34.252  21.151  0.00  0.00    -0.297 N 
ATOM     15  H   ASP A   8      14.837  34.179  20.348  0.00  0.00    +0.150 HD
BRANCH  14  16
ATOM     16  CA  ASP A   8      12.756  34.262  20.868  0.00  0.00    +0.160 C 
BRANCH  16  17
ATOM     17  C   ASP A   8      12.330  32.981  20.173  0.00  0.00    +0.241 C 
ATOM     18  N   THR A   9      11.029  32.734  20.248  0.00  0.00    -0.295 N 
ATOM     19  H   THR A   9      10.446  33.381  20.817  0.00  0.00    +0.150 HD
ATOM     20  O   ASP A   8      13.157  32.238  19.628  0.00  0.00    -0.273 OA
BRANCH  18  21
ATOM     21  CA  THR A   9      10.360  31.624  19.592  0.00  0.00    +0.176 C 
BRANCH  21  22
ATOM     22  C   THR A   9       9.802  32.112  18.250  0.00  0.00    +0.243 C 
ATOM     23  O   THR A   9       9.062  33.095  18.183  0.00  0.00    -0.273 OA
ATOM     24  N   VAL A  10      10.186  31.430  17.181  0.00  0.00    -0.298 N 
ATOM     25  H   VAL A  10      10.767  30.577  17.311  0.00  0.00    +0.150 HD
BRANCH  24  26
ATOM     26  CA  VAL A  10       9.824  31.832  15.835  0.00  0.00    +0.137 C 
BRANCH  26  27
ATOM     27  CB  VAL A  10      11.062  32.284  15.037  0.00  0.00    +0.026 C 
ATOM     28  CG2 VAL A  10      11.992  33.137  15.919  0.00  0.00    +0.002 C 
ATOM     29  CG1 VAL A  10      10.643  33.029  13.773  0.00  0.00    +0.002 C 
ENDBRANCH  26  27
BRANCH  26  30
ATOM     30  C   VAL A  10       9.176  30.650  15.127  0.00  0.00    +0.227 C 
ATOM     31  O   VAL A  10       9.771  29.572  14.991  0.00  0.00    -0.286 OA
ENDBRANCH  26  30
ENDBRANCH  24  26
ENDBRANCH  21  22
BRANCH  21  32
ATOM     32  CB  THR A   9       9.217  31.086  20.506  0.00  0.00    +0.137 C 
ATOM     33  CG2 THR A   9       8.359  30.049  19.799  0.00  0.00    +0.034 C 
BRANCH  32  34
ATOM     34  OG1 THR A   9       9.793  30.485  21.666  0.00  0.00    -0.382 OA
ATOM     35  HG1 THR A   9      10.324  31.161  22.157  0.00  0.00    +0.210 HD
ENDBRANCH  32  34
ENDBRANCH  21  32
ENDBRANCH  18  21
ENDBRANCH  16  17
BRANCH  16  36
ATOM     36  CB  ASP A   8      12.412  35.454  19.977  0.00  0.00    +0.143 C 
BRANCH  36  37
ATOM     37  CG  ASP A   8      12.935  36.759  20.533  0.00  0.00    +0.367 C 
ATOM     38  OD2 ASP A   8      12.615  37.087  21.700  0.00  0.00    -0.246 OA
ATOM     39  OD1 ASP A   8      13.663  37.456  19.801  0.00  0.00    -0.246 OA
ENDBRANCH  36  37
ENDBRANCH  16  36
ENDBRANCH  14  16
ENDBRANCH  11  12
BRANCH  11  40
ATOM     40  CB  ASP A   7      16.431  36.050  22.321  0.00  0.00    +0.143 C 
BRANCH  40  41
ATOM     41  CG  ASP A   7      17.903  36.437  22.271  0.00  0.00    +0.367 C 
ATOM     42  OD2 ASP A   7      18.775  35.674  22.738  0.00  0.00    -0.246 OA
ATOM     43  OD1 ASP A   7      18.163  37.565  21.813  0.00  0.00    -0.246 OA
ENDBRANCH  40  41
ENDBRANCH  11  40
ENDBRANCH   9  11
ENDBRANCH   5   7
ENDBRANCH   2   5
BRANCH   1  44
ATOM     44  CA  GLY A   5      20.763  30.153  20.617  0.00  0.00    +0.176 C 
BRANCH  44  47
ATOM     45  C   THR A   4      19.933  28.922  22.549  0.00  0.00    +0.243 C 
ATOM     46  O   THR A   4      20.140  29.876  23.304  0.00  0.00    -0.273 OA
ATOM     47  N   GLY A   5      20.212  28.960  21.245  0.00  0.00    -0.295 N 
ATOM     48  H   GLY A   5      20.032  28.117  20.663  0.00  0.00    +0.150 HD
BRANCH  45  49
ATOM     49  CA  THR A   4      19.304  27.628  23.089  0.00  0.00    +0.176 C 
BRANCH  49  51
ATOM     50  C   ASP A   3      17.635  27.240  21.354  0.00  0.00    +0.241 C 
ATOM     51  N   THR A   4      18.693  26.823  22.042  0.00  0.00    -0.295 N 
ATOM     52  H   THR A   4      19.098  25.890  21.825  0.00  0.00    +0.150 HD
ATOM     53  O   ASP A   3      17.108  28.349  21.536  0.00  0.00    -0.273 OA
BRANCH  50  54
ATOM     54  CA  ASP A   3      17.135  26.286  20.258  0.00  0.00    +0.160 C 
BRANCH  54  56
ATOM     55  C   LEU A   2      16.132  24.094  20.646  0.00  0.00    +0.241 C 
ATOM     56  N   ASP A   3      16.055  25.420  20.715  0.00  0.00    -0.297 N 
ATOM     57  H   ASP A   3      15.195  25.854  21.108  0.00  0.00    +0.150 HD
ATOM     58  O   LEU A   2      17.197  23.473  20.477  0.00  0.00    -0.273 OA
BRANCH  55  59
ATOM     59  CA  LEU A   2      14.808  23.345  20.797  0.00  0.00    +0.149 C 
BRANCH  59  61
ATOM     60  C   LEU A   1      13.933  23.514  18.532  0.00  0.00    +0.238 C 
ATOM     61  N   LEU A   2      14.447  22.764  19.505  0.00  0.00    -0.297 N 
ATOM     62  H   LEU A   2      14.594  21.747  19.343  0.00  0.00    +0.150 HD
ATOM     63  O   LEU A   1      13.564  24.663  18.711  0.00  0.00    -0.274 OA
BRANCH  60  64
ATOM     64  CA  LEU A   1      13.754  22.868  17.171  0.00  0.00    +0.145 C 
BRANCH  64  65
ATOM     65  N   LEU A   1      12.361  23.028  16.780  0.00  0.00    -0.238 NA
ATOM     66  H   LEU A   1      12.075  23.924  16.335  0.00  0.00    +0.142 HD
ENDBRANCH  64  65
BRANCH  64  67
ATOM     67  CB  LEU A   1      14.594  23.589  16.116  0.00  0.00    +0.026 C 
BRANCH  67  68
ATOM     68  CG  LEU A   1      16.109  23.550  16.073  0.00  0.00    +0.002 C 
ATOM     69  CD2 LEU A   1      16.619  22.143  15.982  0.00  0.00    +0.000 C 
ATOM     70  CD1 LEU A   1      16.547  24.374  14.862  0.00  0.00    +0.000 C 
ENDBRANCH  67  68
ENDBRANCH  64  67
ENDBRANCH  60  64
ENDBRANCH  59  61
BRANCH  59  71
ATOM     71  CB  LEU A   2      14.929  22.268  21.865  0.00  0.00    +0.029 C 
BRANCH  71  72
ATOM     72  CG  LEU A   2      13.699  21.404  22.128  0.00  0.00    +0.002 C 
ATOM     73  CD2 LEU A   2      14.047  20.358  23.151  0.00  0.00    +0.000 C 
ATOM     74  CD1 LEU A   2      12.470  22.218  22.574  0.00  0.00    +0.000 C 
ENDBRANCH  71  72
ENDBRANCH  59  71
ENDBRANCH  55  59
ENDBRANCH  54  56
BRANCH  54  75
ATOM     75  CB  ASP A   3      16.651  27.088  19.046  0.00  0.00    +0.143 C 
BRANCH  75  76
ATOM     76  CG  ASP A   3      17.788  27.771  18.305  0.00  0.00    +0.367 C 
ATOM     77  OD2 ASP A   3      18.929  27.725  18.794  0.00  0.00    -0.246 OA
ATOM     78  OD1 ASP A   3      17.547  28.349  17.231  0.00  0.00    -0.246 OA
ENDBRANCH  75  76
ENDBRANCH  54  75
ENDBRANCH  50  54
ENDBRANCH  49  51
BRANCH  49  79
ATOM     79  CB  THR A   4      20.345  26.795  23.886  0.00  0.00    +0.137 C 
ATOM     80  CG2 THR A   4      19.641  25.664  24.582  0.00  0.00    +0.034 C 
BRANCH  79  81
ATOM     81  OG1 THR A   4      21.361  26.253  23.019  0.00  0.00    -0.382 OA
ATOM     82  HG1 THR A   4      21.834  26.994  22.563  0.00  0.00    +0.210 HD
ENDBRANCH  79  81
ENDBRANCH  49  79
ENDBRANCH  45  49
ENDBRANCH  44  47
ENDBRANCH   1  44
TORSDOF 35
REMARK  Name = ../refined-set-2016/2qi0/2qi0_pocket.pdb
REMARK  223 active torsions:
REMARK  status: ('A' for Active; 'I' for Inactive)
REMARK    1  A    between atoms: _1  and  _3
REMARK    2  A    between atoms: _3  and  _4
REMARK    3  A    between atoms: _3  and  _6
REMARK    4  A    between atoms: _6  and  _7
REMARK    5  A    between atoms: _7  and  _8
REMARK    6  A    between atoms: _8  and  _9
REMARK    7  A    between atoms: _18  and  _20
REMARK    8  A    between atoms: _20  and  _21
REMARK    9  A    between atoms: _20  and  _23
REMARK   10  A    between atoms: _23  and  _24
REMARK   11  A    between atoms: _27  and  _29
REMARK   12  A    between atoms: _29  and  _30
REMARK   13  A    between atoms: _29  and  _32
REMARK   14  A    between atoms: _32  and  _33
REMARK   15  A    between atoms: _36  and  _38
REMARK   16  A    between atoms: _38  and  _39
REMARK   17  A    between atoms: _38  and  _41
REMARK   18  A    between atoms: _41  and  _42
REMARK   19  A    between atoms: _45  and  _47
REMARK   20  A    between atoms: _47  and  _48
REMARK   21  A    between atoms: _47  and  _50
REMARK   22  A    between atoms: _50  and  _51
REMARK   23  A    between atoms: _54  and  _56
REMARK   24  A    between atoms: _56  and  _57
REMARK   25  A    between atoms: _59  and  _61
REMARK   26  A    between atoms: _61  and  _62
REMARK   27  A    between atoms: _65  and  _67
REMARK   28  A    between atoms: _67  and  _68
REMARK   29  A    between atoms: _67  and  _70
REMARK   30  A    between atoms: _70  and  _71
REMARK   31  A    between atoms: _74  and  _76
REMARK   32  A    between atoms: _76  and  _77
REMARK   33  A    between atoms: _76  and  _79
REMARK   34  A    between atoms: _79  and  _80
REMARK   35  A    between atoms: _83  and  _85
REMARK   36  A    between atoms: _85  and  _86
REMARK   37  A    between atoms: _85  and  _88
REMARK   38  A    between atoms: _88  and  _89
REMARK   39  A    between atoms: _92  and  _94
REMARK   40  A    between atoms: _94  and  _95
REMARK   41  A    between atoms: _94  and  _97
REMARK   42  A    between atoms: _100  and  _102
REMARK   43  A    between atoms: _102  and  _103
REMARK   44  A    between atoms: _102  and  _105
REMARK   45  A    between atoms: _105  and  _106
REMARK   46  A    between atoms: _109  and  _111
REMARK   47  A    between atoms: _111  and  _112
REMARK   48  A    between atoms: _111  and  _114
REMARK   49  A    between atoms: _114  and  _115
REMARK   50  A    between atoms: _115  and  _116
REMARK   51  A    between atoms: _118  and  _120
REMARK   52  A    between atoms: _120  and  _121
REMARK   53  A    between atoms: _120  and  _123
REMARK   54  A    between atoms: _123  and  _124
REMARK   55  A    between atoms: _127  and  _129
REMARK   56  A    between atoms: _129  and  _130
REMARK   57  A    between atoms: _132  and  _134
REMARK   58  A    between atoms: _134  and  _135
REMARK   59  A    between atoms: _137  and  _139
REMARK   60  A    between atoms: _139  and  _140
REMARK   61  A    between atoms: _139  and  _142
REMARK   62  A    between atoms: _142  and  _143
REMARK   63  A    between atoms: _146  and  _148
REMARK   64  A    between atoms: _148  and  _149
REMARK   65  A    between atoms: _151  and  _153
REMARK   66  A    between atoms: _153  and  _154
REMARK   67  A    between atoms: _156  and  _158
REMARK   68  A    between atoms: _158  and  _159
REMARK   69  A    between atoms: _158  and  _161
REMARK   70  A    between atoms: _161  and  _162
REMARK   71  A    between atoms: _165  and  _167
REMARK   72  A    between atoms: _167  and  _168
REMARK   73  A    between atoms: _167  and  _170
REMARK   74  A    between atoms: _173  and  _175
REMARK   75  A    between atoms: _175  and  _176
REMARK   76  A    between atoms: _175  and  _178
REMARK   77  A    between atoms: _178  and  _179
REMARK   78  A    between atoms: _183  and  _184
REMARK   79  A    between atoms: _189  and  _191
REMARK   80  A    between atoms: _191  and  _192
REMARK   81  A    between atoms: _191  and  _194
REMARK   82  A    between atoms: _194  and  _195
REMARK   83  A    between atoms: _199  and  _200
REMARK   84  A    between atoms: _205  and  _207
REMARK   85  A    between atoms: _207  and  _208
REMARK   86  A    between atoms: _207  and  _210
REMARK   87  A    between atoms: _213  and  _215
REMARK   88  A    between atoms: _215  and  _216
REMARK   89  A    between atoms: _215  and  _218
REMARK   90  A    between atoms: _218  and  _219
REMARK   91  A    between atoms: _224  and  _226
REMARK   92  A    between atoms: _226  and  _227
REMARK   93  A    between atoms: _226  and  _229
REMARK   94  A    between atoms: _229  and  _230
REMARK   95  A    between atoms: _233  and  _235
REMARK   96  A    between atoms: _235  and  _236
REMARK   97  A    between atoms: _235  and  _238
REMARK   98  A    between atoms: _238  and  _239
REMARK   99  A    between atoms: _242  and  _244
REMARK  100  A    between atoms: _244  and  _245
REMARK  101  A    between atoms: _247  and  _249
REMARK  102  A    between atoms: _249  and  _250
REMARK  103  A    between atoms: _249  and  _252
REMARK  104  A    between atoms: _252  and  _253
REMARK  105  A    between atoms: _253  and  _254
REMARK  106  A    between atoms: _254  and  _255
REMARK  107  A    between atoms: _264  and  _266
REMARK  108  A    between atoms: _266  and  _267
REMARK  109  A    between atoms: _266  and  _269
REMARK  110  A    between atoms: _269  and  _270
REMARK  111  A    between atoms: _275  and  _277
REMARK  112  A    between atoms: _277  and  _278
REMARK  113  A    between atoms: _277  and  _280
REMARK  114  A    between atoms: _280  and  _281
REMARK  115  A    between atoms: _281  and  _282
REMARK  116  A    between atoms: _282  and  _283
REMARK  117  A    between atoms: _292  and  _294
REMARK  118  A    between atoms: _294  and  _295
REMARK  119  A    between atoms: _294  and  _297
REMARK  120  A    between atoms: _297  and  _298
REMARK  121  A    between atoms: _301  and  _303
REMARK  122  A    between atoms: _303  and  _304
REMARK  123  A    between atoms: _303  and  _306
REMARK  124  A    between atoms: _306  and  _307
REMARK  125  A    between atoms: _310  and  _312
REMARK  126  A    between atoms: _312  and  _313
REMARK  127  A    between atoms: _312  and  _315
REMARK  128  A    between atoms: _315  and  _316
REMARK  129  A    between atoms: _319  and  _321
REMARK  130  A    between atoms: _321  and  _322
REMARK  131  A    between atoms: _321  and  _324
REMARK  132  A    between atoms: _324  and  _325
REMARK  133  A    between atoms: _328  and  _330
REMARK  134  A    between atoms: _330  and  _331
REMARK  135  A    between atoms: _333  and  _335
REMARK  136  A    between atoms: _335  and  _336
REMARK  137  A    between atoms: _339  and  _341
REMARK  138  A    between atoms: _341  and  _342
REMARK  139  A    between atoms: _341  and  _344
REMARK  140  A    between atoms: _344  and  _345
REMARK  141  A    between atoms: _348  and  _350
REMARK  142  A    between atoms: _350  and  _351
REMARK  143  A    between atoms: _350  and  _353
REMARK  144  A    between atoms: _353  and  _354
REMARK  145  A    between atoms: _357  and  _359
REMARK  146  A    between atoms: _359  and  _360
REMARK  147  A    between atoms: _359  and  _362
REMARK  148  A    between atoms: _362  and  _363
REMARK  149  A    between atoms: _366  and  _368
REMARK  150  A    between atoms: _368  and  _369
REMARK  151  A    between atoms: _368  and  _371
REMARK  152  A    between atoms: _374  and  _376
REMARK  153  A    between atoms: _376  and  _377
REMARK  154  A    between atoms: _376  and  _379
REMARK  155  A    between atoms: _379  and  _380
REMARK  156  A    between atoms: _380  and  _381
REMARK  157  A    between atoms: _381  and  _382
REMARK  158  A    between atoms: _382  and  _383
REMARK  159  A    between atoms: _387  and  _389
REMARK  160  A    between atoms: _389  and  _390
REMARK  161  A    between atoms: _389  and  _392
REMARK  162  A    between atoms: _392  and  _393
REMARK  163  A    between atoms: _393  and  _394
REMARK  164  A    between atoms: _396  and  _398
REMARK  165  A    between atoms: _398  and  _399
REMARK  166  A    between atoms: _398  and  _401
REMARK  167  A    between atoms: _401  and  _402
REMARK  168  A    between atoms: _405  and  _407
REMARK  169  A    between atoms: _407  and  _408
REMARK  170  A    between atoms: _410  and  _412
REMARK  171  A    between atoms: _412  and  _413
REMARK  172  A    between atoms: _415  and  _417
REMARK  173  A    between atoms: _417  and  _418
REMARK  174  A    between atoms: _417  and  _420
REMARK  175  A    between atoms: _420  and  _421
REMARK  176  A    between atoms: _424  and  _426
REMARK  177  A    between atoms: _426  and  _427
REMARK  178  A    between atoms: _429  and  _431
REMARK  179  A    between atoms: _431  and  _432
REMARK  180  A    between atoms: _434  and  _436
REMARK  181  A    between atoms: _436  and  _437
REMARK  182  A    between atoms: _436  and  _439
REMARK  183  A    between atoms: _439  and  _440
REMARK  184  A    between atoms: _446  and  _448
REMARK  185  A    between atoms: _448  and  _449
REMARK  186  A    between atoms: _448  and  _451
REMARK  187  A    between atoms: _451  and  _452
REMARK  188  A    between atoms: _455  and  _457
REMARK  189  A    between atoms: _457  and  _458
REMARK  190  A    between atoms: _457  and  _460
REMARK  191  A    between atoms: _460  and  _461
REMARK  192  A    between atoms: _464  and  _466
REMARK  193  A    between atoms: _466  and  _467
REMARK  194  A    between atoms: _466  and  _469
REMARK  195  A    between atoms: _469  and  _470
REMARK  196  A    between atoms: _474  and  _475
REMARK  197  A    between atoms: _480  and  _482
REMARK  198  A    between atoms: _482  and  _483
REMARK  199  A    between atoms: _482  and  _485
REMARK  200  A    between atoms: _488  and  _490
REMARK  201  A    between atoms: _490  and  _491
REMARK  202  A    between atoms: _490  and  _493
REMARK  203  A    between atoms: _493  and  _494
REMARK  204  A    between atoms: _499  and  _501
REMARK  205  A    between atoms: _501  and  _502
REMARK  206  A    between atoms: _501  and  _504
REMARK  207  A    between atoms: _504  and  _505
REMARK  208  A    between atoms: _508  and  _510
REMARK  209  A    between atoms: _510  and  _511
REMARK  210  A    between atoms: _510  and  _513
REMARK  211  A    between atoms: _513  and  _514
REMARK  212  A    between atoms: _517  and  _519
REMARK  213  A    between atoms: _519  and  _520
REMARK  214  A    between atoms: _522  and  _524
REMARK  215  A    between atoms: _524  and  _525
REMARK  216  A    between atoms: _524  and  _527
REMARK  217  A    between atoms: _527  and  _528
REMARK  218  A    between atoms: _528  and  _529
REMARK  219  A    between atoms: _529  and  _530
REMARK  220  A    between atoms: _539  and  _541
REMARK  221  A    between atoms: _541  and  _542
REMARK  222  A    between atoms: _541  and  _544
REMARK  223  A    between atoms: _544  and  _545
REMARK                            x       y       z     vdW  Elec       q    Type
REMARK                         _______ _______ _______ _____ _____    ______ ____
ROOT
ATOM      1  C   GLY A   5      21.590  35.770  11.169  0.00  0.00    +0.243 C 
ATOM      2  N   ILE A   6      22.048  34.550  10.935  0.00  0.00    -0.297 N 
ATOM      3  H   ILE A   6      21.799  33.774  11.581  0.00  0.00    +0.150 HD
ATOM      4  O   GLY A   5      21.960  36.752  10.546  0.00  0.00    -0.273 OA
ENDROOT
BRANCH   2   5
ATOM      5  CA  ILE A   6      22.893  34.285   9.787  0.00  0.00    +0.149 C 
BRANCH   5   6
ATOM      6  C   ILE A   6      22.103  34.637   8.529  0.00  0.00    +0.241 C 
ATOM      7  O   ILE A   6      20.929  34.291   8.395  0.00  0.00    -0.273 OA
ATOM      8  N   GLY A   7      22.725  35.432   7.671  0.00  0.00    -0.295 N 
ATOM      9  H   GLY A   7      23.685  35.764   7.892  0.00  0.00    +0.150 HD
BRANCH   8  10
ATOM     10  CA  GLY A   7      22.100  35.849   6.434  0.00  0.00    +0.176 C 
BRANCH  10  11
ATOM     11  C   GLY A   7      21.406  37.189   6.519  0.00  0.00    +0.243 C 
ATOM     12  N   GLY A   8      21.078  37.651   7.723  0.00  0.00    -0.295 N 
ATOM     13  H   GLY A   8      21.275  37.065   8.560  0.00  0.00    +0.150 HD
ATOM     14  O   GLY A   7      21.150  37.787   5.490  0.00  0.00    -0.273 OA
BRANCH  12  15
ATOM     15  CA  GLY A   8      20.448  38.958   7.904  0.00  0.00    +0.176 C 
BRANCH  15  16
ATOM     16  C   GLY A   8      19.093  38.863   8.593  0.00  0.00    +0.243 C 
ATOM     17  O   GLY A   8      18.864  37.969   9.413  0.00  0.00    -0.273 OA
ATOM     18  N   PHE A   9      18.186  39.776   8.247  0.00  0.00    -0.297 N 
ATOM     19  H   PHE A   9      18.366  40.386   7.424  0.00  0.00    +0.150 HD
BRANCH  18  20
ATOM     20  CA  PHE A   9      16.937  39.939   9.003  0.00  0.00    +0.153 C 
BRANCH  20  21
ATOM     21  C   PHE A   9      15.720  39.450   8.232  0.00  0.00    +0.241 C 
ATOM     22  N   ILE A  10      14.702  38.984   8.952  0.00  0.00    -0.298 N 
ATOM     23  H   ILE A  10      14.847  38.778   9.961  0.00  0.00    +0.150 HD
ATOM     24  O   PHE A   9      15.725  39.452   7.013  0.00  0.00    -0.273 OA
BRANCH  22  25
ATOM     25  CA  ILE A  10      13.384  38.755   8.360  0.00  0.00    +0.137 C 
BRANCH  25  26
ATOM     26  C   ILE A  10      12.318  39.503   9.159  0.00  0.00    +0.227 C 
ATOM     27  O   ILE A  10      12.501  39.787  10.351  0.00  0.00    -0.286 OA
ENDBRANCH  25  26
BRANCH  25  28
ATOM     28  CB  ILE A  10      13.031  37.248   8.284  0.00  0.00    +0.026 C 
ATOM     29  CG2 ILE A  10      14.032  36.518   7.411  0.00  0.00    +0.002 C 
BRANCH  28  30
ATOM     30  CG1 ILE A  10      13.004  36.607   9.671  0.00  0.00    +0.002 C 
ATOM     31  CD1 ILE A  10      12.203  35.304   9.717  0.00  0.00    +0.000 C 
ENDBRANCH  28  30
ENDBRANCH  25  28
ENDBRANCH  22  25
ENDBRANCH  20  21
BRANCH  20  32
ATOM     32  CB  PHE A   9      16.749  41.395   9.394  0.00  0.00    +0.055 C 
BRANCH  32  33
ATOM     33  CG  PHE A   9      17.597  41.825  10.559  0.00  0.00    -0.020 A 
ATOM     34  CD2 PHE A   9      17.045  41.998  11.803  0.00  0.00    -0.004 A 
ATOM     35  CE2 PHE A   9      17.825  42.407  12.873  0.00  0.00    -0.000 A 
ATOM     36  CZ  PHE A   9      19.157  42.667  12.692  0.00  0.00    -0.000 A 
ATOM     37  CE1 PHE A   9      19.716  42.529  11.450  0.00  0.00    -0.000 A 
ATOM     38  CD1 PHE A   9      18.937  42.108  10.386  0.00  0.00    -0.004 A 
ENDBRANCH  32  33
ENDBRANCH  20  32
ENDBRANCH  18  20
ENDBRANCH  15  16
ENDBRANCH  12  15
ENDBRANCH  10  11
ENDBRANCH   8  10
ENDBRANCH   5   6
BRANCH   5  39
ATOM     39  CB  ILE A   6      23.422  32.848   9.818  0.00  0.00    +0.027 C 
ATOM     40  CG2 ILE A   6      23.841  32.367   8.445  0.00  0.00    +0.002 C 
BRANCH  39  41
ATOM     41  CG1 ILE A   6      24.619  32.820  10.771  0.00  0.00    +0.002 C 
ATOM     42  CD1 ILE A   6      25.064  31.473  11.133  0.00  0.00    +0.000 C 
ENDBRANCH  39  41
ENDBRANCH   5  39
ENDBRANCH   2   5
BRANCH   1  43
ATOM     43  CA  GLY A   5      20.547  35.883  12.255  0.00  0.00    +0.176 C 
BRANCH  43  46
ATOM     44  C   GLY A   4      19.044  37.601  13.023  0.00  0.00    +0.243 C 
ATOM     45  O   GLY A   4      19.082  37.171  14.168  0.00  0.00    -0.273 OA
ATOM     46  N   GLY A   5      19.604  36.964  12.010  0.00  0.00    -0.295 N 
ATOM     47  H   GLY A   5      19.370  37.236  11.034  0.00  0.00    +0.150 HD
BRANCH  44  48
ATOM     48  CA  GLY A   4      18.371  38.925  12.691  0.00  0.00    +0.176 C 
BRANCH  48  50
ATOM     49  C   ILE A   3      15.970  39.197  12.949  0.00  0.00    +0.241 C 
ATOM     50  N   GLY A   4      17.188  39.206  13.478  0.00  0.00    -0.295 N 
ATOM     51  H   GLY A   4      17.296  39.422  14.490  0.00  0.00    +0.150 HD
ATOM     52  O   ILE A   3      15.743  38.872  11.780  0.00  0.00    -0.273 OA
BRANCH  49  53
ATOM     53  CA  ILE A   3      14.838  39.634  13.886  0.00  0.00    +0.149 C 
BRANCH  53  56
ATOM     54  C   MET A   2      13.386  41.556  13.600  0.00  0.00    +0.241 C 
ATOM     55  O   MET A   2      13.636  41.991  14.725  0.00  0.00    -0.273 OA
ATOM     56  N   ILE A   3      13.823  40.382  13.155  0.00  0.00    -0.297 N 
ATOM     57  H   ILE A   3      13.435  39.992  12.273  0.00  0.00    +0.150 HD
BRANCH  54  58
ATOM     58  CA  MET A   2      12.530  42.370  12.656  0.00  0.00    +0.149 C 
BRANCH  58  60
ATOM     59  C   LYS A   1      10.135  42.579  13.185  0.00  0.00    +0.238 C 
ATOM     60  N   MET A   2      11.407  42.885  13.424  0.00  0.00    -0.297 N 
ATOM     61  H   MET A   2      11.612  43.534  14.210  0.00  0.00    +0.150 HD
ATOM     62  O   LYS A   1       9.752  41.888  12.235  0.00  0.00    -0.274 OA
BRANCH  59  63
ATOM     63  CA  LYS A   1       9.149  43.138  14.212  0.00  0.00    +0.145 C 
BRANCH  63  64
ATOM     64  N   LYS A   1       7.830  43.158  13.622  0.00  0.00    -0.238 NA
ATOM     65  H   LYS A   1       7.599  42.491  12.858  0.00  0.00    +0.142 HD
ENDBRANCH  63  64
BRANCH  63  66
ATOM     66  CB  LYS A   1       9.100  42.257  15.456  0.00  0.00    +0.026 C 
BRANCH  66  67
ATOM     67  CG  LYS A   1      10.377  42.120  16.271  0.00  0.00    -0.000 C 
BRANCH  67  68
ATOM     68  CD  LYS A   1      10.151  41.129  17.401  0.00  0.00    -0.024 C 
BRANCH  68  69
ATOM     69  CE  LYS A   1      11.409  40.842  18.186  0.00  0.00    -0.086 C 
BRANCH  69  70
ATOM     70  NZ  LYS A   1      11.779  41.963  19.067  0.00  0.00    +0.380 N 
ATOM     71  HZ1 LYS A   1      11.008  42.141  19.742  0.00  0.00    -0.089 HD
ATOM     72  HZ2 LYS A   1      12.648  41.722  19.586  0.00  0.00    -0.089 HD
ATOM     73  HZ3 LYS A   1      11.942  42.815  18.493  0.00  0.00    -0.089 HD
ENDBRANCH  69  70
ENDBRANCH  68  69
ENDBRANCH  67  68
ENDBRANCH  66  67
ENDBRANCH  63  66
ENDBRANCH  59  63
ENDBRANCH  58  60
BRANCH  58  74
ATOM     74  CB  MET A   2      13.379  43.529  12.129  0.00  0.00    +0.041 C 
BRANCH  74  75
ATOM     75  CG  MET A   2      12.650  44.400  11.149  0.00  0.00    +0.060 C 
BRANCH  75  76
ATOM     76  SD  MET A   2      12.412  43.492   9.626  0.00  0.00    -0.139 S 
ATOM     77  CE  MET A   2      13.968  43.826   8.810  0.00  0.00    +0.069 C 
ENDBRANCH  75  76
ENDBRANCH  74  75
ENDBRANCH  58  74
ENDBRANCH  54  58
ENDBRANCH  53  56
BRANCH  53  78
ATOM     78  CB  ILE A   3      14.250  38.397  14.594  0.00  0.00    +0.027 C 
ATOM     79  CG2 ILE A   3      13.425  38.820  15.805  0.00  0.00    +0.002 C 
BRANCH  78  80
ATOM     80  CG1 ILE A   3      13.401  37.567  13.624  0.00  0.00    +0.002 C 
ATOM     81  CD1 ILE A   3      13.196  36.133  14.081  0.00  0.00    +0.000 C 
ENDBRANCH  78  80
ENDBRANCH  53  78
ENDBRANCH  49  53
ENDBRANCH  48  50
ENDBRANCH  44  48
ENDBRANCH  43  46
ENDBRANCH   1  43
TORSDOF 36
REMARK  Name = ../refined-set-2016/2qi0/2qi0_pocket.pdb
REMARK  223 active torsions:
REMARK  status: ('A' for Active; 'I' for Inactive)
REMARK    1  A    between atoms: _1  and  _3
REMARK    2  A    between atoms: _3  and  _4
REMARK    3  A    between atoms: _3  and  _6
REMARK    4  A    between atoms: _6  and  _7
REMARK    5  A    between atoms: _7  and  _8
REMARK    6  A    between atoms: _8  and  _9
REMARK    7  A    between atoms: _18  and  _20
REMARK    8  A    between atoms: _20  and  _21
REMARK    9  A    between atoms: _20  and  _23
REMARK   10  A    between atoms: _23  and  _24
REMARK   11  A    between atoms: _27  and  _29
REMARK   12  A    between atoms: _29  and  _30
REMARK   13  A    between atoms: _29  and  _32
REMARK   14  A    between atoms: _32  and  _33
REMARK   15  A    between atoms: _36  and  _38
REMARK   16  A    between atoms: _38  and  _39
REMARK   17  A    between atoms: _38  and  _41
REMARK   18  A    between atoms: _41  and  _42
REMARK   19  A    between atoms: _45  and  _47
REMARK   20  A    between atoms: _47  and  _48
REMARK   21  A    between atoms: _47  and  _50
REMARK   22  A    between atoms: _50  and  _51
REMARK   23  A    between atoms: _54  and  _56
REMARK   24  A    between atoms: _56  and  _57
REMARK   25  A    between atoms: _59  and  _61
REMARK   26  A    between atoms: _61  and  _62
REMARK   27  A    between atoms: _65  and  _67
REMARK   28  A    between atoms: _67  and  _68
REMARK   29  A    between atoms: _67  and  _70
REMARK   30  A    between atoms: _70  and  _71
REMARK   31  A    between atoms: _74  and  _76
REMARK   32  A    between atoms: _76  and  _77
REMARK   33  A    between atoms: _76  and  _79
REMARK   34  A    between atoms: _79  and  _80
REMARK   35  A    between atoms: _83  and  _85
REMARK   36  A    between atoms: _85  and  _86
REMARK   37  A    between atoms: _85  and  _88
REMARK   38  A    between atoms: _88  and  _89
REMARK   39  A    between atoms: _92  and  _94
REMARK   40  A    between atoms: _94  and  _95
REMARK   41  A    between atoms: _94  and  _97
REMARK   42  A    between atoms: _100  and  _102
REMARK   43  A    between atoms: _102  and  _103
REMARK   44  A    between atoms: _102  and  _105
REMARK   45  A    between atoms: _105  and  _106
REMARK   46  A    between atoms: _109  and  _111
REMARK   47  A    between atoms: _111  and  _112
REMARK   48  A    between atoms: _111  and  _114
REMARK   49  A    between atoms: _114  and  _115
REMARK   50  A    between atoms: _115  and  _116
REMARK   51  A    between atoms: _118  and  _120
REMARK   52  A    between atoms: _120  and  _121
REMARK   53  A    between atoms: _120  and  _123
REMARK   54  A    between atoms: _123  and  _124
REMARK   55  A    between atoms: _127  and  _129
REMARK   56  A    between atoms: _129  and  _130
REMARK   57  A    between atoms: _132  and  _134
REMARK   58  A    between atoms: _134  and  _135
REMARK   59  A    between atoms: _137  and  _139
REMARK   60  A    between atoms: _139  and  _140
REMARK   61  A    between atoms: _139  and  _142
REMARK   62  A    between atoms: _142  and  _143
REMARK   63  A    between atoms: _146  and  _148
REMARK   64  A    between atoms: _148  and  _149
REMARK   65  A    between atoms: _151  and  _153
REMARK   66  A    between atoms: _153  and  _154
REMARK   67  A    between atoms: _156  and  _158
REMARK   68  A    between atoms: _158  and  _159
REMARK   69  A    between atoms: _158  and  _161
REMARK   70  A    between atoms: _161  and  _162
REMARK   71  A    between atoms: _165  and  _167
REMARK   72  A    between atoms: _167  and  _168
REMARK   73  A    between atoms: _167  and  _170
REMARK   74  A    between atoms: _173  and  _175
REMARK   75  A    between atoms: _175  and  _176
REMARK   76  A    between atoms: _175  and  _178
REMARK   77  A    between atoms: _178  and  _179
REMARK   78  A    between atoms: _183  and  _184
REMARK   79  A    between atoms: _189  and  _191
REMARK   80  A    between atoms: _191  and  _192
REMARK   81  A    between atoms: _191  and  _194
REMARK   82  A    between atoms: _194  and  _195
REMARK   83  A    between atoms: _199  and  _200
REMARK   84  A    between atoms: _205  and  _207
REMARK   85  A    between atoms: _207  and  _208
REMARK   86  A    between atoms: _207  and  _210
REMARK   87  A    between atoms: _213  and  _215
REMARK   88  A    between atoms: _215  and  _216
REMARK   89  A    between atoms: _215  and  _218
REMARK   90  A    between atoms: _218  and  _219
REMARK   91  A    between atoms: _224  and  _226
REMARK   92  A    between atoms: _226  and  _227
REMARK   93  A    between atoms: _226  and  _229
REMARK   94  A    between atoms: _229  and  _230
REMARK   95  A    between atoms: _233  and  _235
REMARK   96  A    between atoms: _235  and  _236
REMARK   97  A    between atoms: _235  and  _238
REMARK   98  A    between atoms: _238  and  _239
REMARK   99  A    between atoms: _242  and  _244
REMARK  100  A    between atoms: _244  and  _245
REMARK  101  A    between atoms: _247  and  _249
REMARK  102  A    between atoms: _249  and  _250
REMARK  103  A    between atoms: _249  and  _252
REMARK  104  A    between atoms: _252  and  _253
REMARK  105  A    between atoms: _253  and  _254
REMARK  106  A    between atoms: _254  and  _255
REMARK  107  A    between atoms: _264  and  _266
REMARK  108  A    between atoms: _266  and  _267
REMARK  109  A    between atoms: _266  and  _269
REMARK  110  A    between atoms: _269  and  _270
REMARK  111  A    between atoms: _275  and  _277
REMARK  112  A    between atoms: _277  and  _278
REMARK  113  A    between atoms: _277  and  _280
REMARK  114  A    between atoms: _280  and  _281
REMARK  115  A    between atoms: _281  and  _282
REMARK  116  A    between atoms: _282  and  _283
REMARK  117  A    between atoms: _292  and  _294
REMARK  118  A    between atoms: _294  and  _295
REMARK  119  A    between atoms: _294  and  _297
REMARK  120  A    between atoms: _297  and  _298
REMARK  121  A    between atoms: _301  and  _303
REMARK  122  A    between atoms: _303  and  _304
REMARK  123  A    between atoms: _303  and  _306
REMARK  124  A    between atoms: _306  and  _307
REMARK  125  A    between atoms: _310  and  _312
REMARK  126  A    between atoms: _312  and  _313
REMARK  127  A    between atoms: _312  and  _315
REMARK  128  A    between atoms: _315  and  _316
REMARK  129  A    between atoms: _319  and  _321
REMARK  130  A    between atoms: _321  and  _322
REMARK  131  A    between atoms: _321  and  _324
REMARK  132  A    between atoms: _324  and  _325
REMARK  133  A    between atoms: _328  and  _330
REMARK  134  A    between atoms: _330  and  _331
REMARK  135  A    between atoms: _333  and  _335
REMARK  136  A    between atoms: _335  and  _336
REMARK  137  A    between atoms: _339  and  _341
REMARK  138  A    between atoms: _341  and  _342
REMARK  139  A    between atoms: _341  and  _344
REMARK  140  A    between atoms: _344  and  _345
REMARK  141  A    between atoms: _348  and  _350
REMARK  142  A    between atoms: _350  and  _351
REMARK  143  A    between atoms: _350  and  _353
REMARK  144  A    between atoms: _353  and  _354
REMARK  145  A    between atoms: _357  and  _359
REMARK  146  A    between atoms: _359  and  _360
REMARK  147  A    between atoms: _359  and  _362
REMARK  148  A    between atoms: _362  and  _363
REMARK  149  A    between atoms: _366  and  _368
REMARK  150  A    between atoms: _368  and  _369
REMARK  151  A    between atoms: _368  and  _371
REMARK  152  A    between atoms: _374  and  _376
REMARK  153  A    between atoms: _376  and  _377
REMARK  154  A    between atoms: _376  and  _379
REMARK  155  A    between atoms: _379  and  _380
REMARK  156  A    between atoms: _380  and  _381
REMARK  157  A    between atoms: _381  and  _382
REMARK  158  A    between atoms: _382  and  _383
REMARK  159  A    between atoms: _387  and  _389
REMARK  160  A    between atoms: _389  and  _390
REMARK  161  A    between atoms: _389  and  _392
REMARK  162  A    between atoms: _392  and  _393
REMARK  163  A    between atoms: _393  and  _394
REMARK  164  A    between atoms: _396  and  _398
REMARK  165  A    between atoms: _398  and  _399
REMARK  166  A    between atoms: _398  and  _401
REMARK  167  A    between atoms: _401  and  _402
REMARK  168  A    between atoms: _405  and  _407
REMARK  169  A    between atoms: _407  and  _408
REMARK  170  A    between atoms: _410  and  _412
REMARK  171  A    between atoms: _412  and  _413
REMARK  172  A    between atoms: _415  and  _417
REMARK  173  A    between atoms: _417  and  _418
REMARK  174  A    between atoms: _417  and  _420
REMARK  175  A    between atoms: _420  and  _421
REMARK  176  A    between atoms: _424  and  _426
REMARK  177  A    between atoms: _426  and  _427
REMARK  178  A    between atoms: _429  and  _431
REMARK  179  A    between atoms: _431  and  _432
REMARK  180  A    between atoms: _434  and  _436
REMARK  181  A    between atoms: _436  and  _437
REMARK  182  A    between atoms: _436  and  _439
REMARK  183  A    between atoms: _439  and  _440
REMARK  184  A    between atoms: _446  and  _448
REMARK  185  A    between atoms: _448  and  _449
REMARK  186  A    between atoms: _448  and  _451
REMARK  187  A    between atoms: _451  and  _452
REMARK  188  A    between atoms: _455  and  _457
REMARK  189  A    between atoms: _457  and  _458
REMARK  190  A    between atoms: _457  and  _460
REMARK  191  A    between atoms: _460  and  _461
REMARK  192  A    between atoms: _464  and  _466
REMARK  193  A    between atoms: _466  and  _467
REMARK  194  A    between atoms: _466  and  _469
REMARK  195  A    between atoms: _469  and  _470
REMARK  196  A    between atoms: _474  and  _475
REMARK  197  A    between atoms: _480  and  _482
REMARK  198  A    between atoms: _482  and  _483
REMARK  199  A    between atoms: _482  and  _485
REMARK  200  A    between atoms: _488  and  _490
REMARK  201  A    between atoms: _490  and  _491
REMARK  202  A    between atoms: _490  and  _493
REMARK  203  A    between atoms: _493  and  _494
REMARK  204  A    between atoms: _499  and  _501
REMARK  205  A    between atoms: _501  and  _502
REMARK  206  A    between atoms: _501  and  _504
REMARK  207  A    between atoms: _504  and  _505
REMARK  208  A    between atoms: _508  and  _510
REMARK  209  A    between atoms: _510  and  _511
REMARK  210  A    between atoms: _510  and  _513
REMARK  211  A    between atoms: _513  and  _514
REMARK  212  A    between atoms: _517  and  _519
REMARK  213  A    between atoms: _519  and  _520
REMARK  214  A    between atoms: _522  and  _524
REMARK  215  A    between atoms: _524  and  _525
REMARK  216  A    between atoms: _524  and  _527
REMARK  217  A    between atoms: _527  and  _528
REMARK  218  A    between atoms: _528  and  _529
REMARK  219  A    between atoms: _529  and  _530
REMARK  220  A    between atoms: _539  and  _541
REMARK  221  A    between atoms: _541  and  _542
REMARK  222  A    between atoms: _541  and  _544
REMARK  223  A    between atoms: _544  and  _545
REMARK                            x       y       z     vdW  Elec       q    Type
REMARK                         _______ _______ _______ _____ _____    ______ ____
ROOT
ATOM      1  CA  LEU A   1       6.981  35.389  16.396  0.00  0.00    +0.133 C 
ENDROOT
BRANCH   1   2
ATOM      2  N   LEU A   1       6.732  34.635  17.620  0.00  0.00    -0.239 NA
ATOM      3  H   LEU A   1       7.451  33.958  17.946  0.00  0.00    +0.142 HD
ENDBRANCH   1   2
BRANCH   1   4
ATOM      4  C   LEU A   1       6.674  34.525  15.169  0.00  0.00    +0.224 C 
ATOM      5  O   LEU A   1       7.094  33.365  15.078  0.00  0.00    -0.287 OA
ENDBRANCH   1   4
BRANCH   1   6
ATOM      6  CB  LEU A   1       8.427  35.912  16.352  0.00  0.00    +0.025 C 
BRANCH   6   7
ATOM      7  CG  LEU A   1       8.966  36.613  17.609  0.00  0.00    +0.002 C 
ATOM      8  CD2 LEU A   1       8.169  37.854  18.003  0.00  0.00    +0.000 C 
ATOM      9  CD1 LEU A   1      10.428  36.972  17.448  0.00  0.00    +0.000 C 
ENDBRANCH   6   7
ENDBRANCH   1   6
TORSDOF 4
REMARK  Name = ../refined-set-2016/2qi0/2qi0_pocket.pdb
REMARK  223 active torsions:
REMARK  status: ('A' for Active; 'I' for Inactive)
REMARK    1  A    between atoms: _1  and  _3
REMARK    2  A    between atoms: _3  and  _4
REMARK    3  A    between atoms: _3  and  _6
REMARK    4  A    between atoms: _6  and  _7
REMARK    5  A    between atoms: _7  and  _8
REMARK    6  A    between atoms: _8  and  _9
REMARK    7  A    between atoms: _18  and  _20
REMARK    8  A    between atoms: _20  and  _21
REMARK    9  A    between atoms: _20  and  _23
REMARK   10  A    between atoms: _23  and  _24
REMARK   11  A    between atoms: _27  and  _29
REMARK   12  A    between atoms: _29  and  _30
REMARK   13  A    between atoms: _29  and  _32
REMARK   14  A    between atoms: _32  and  _33
REMARK   15  A    between atoms: _36  and  _38
REMARK   16  A    between atoms: _38  and  _39
REMARK   17  A    between atoms: _38  and  _41
REMARK   18  A    between atoms: _41  and  _42
REMARK   19  A    between atoms: _45  and  _47
REMARK   20  A    between atoms: _47  and  _48
REMARK   21  A    between atoms: _47  and  _50
REMARK   22  A    between atoms: _50  and  _51
REMARK   23  A    between atoms: _54  and  _56
REMARK   24  A    between atoms: _56  and  _57
REMARK   25  A    between atoms: _59  and  _61
REMARK   26  A    between atoms: _61  and  _62
REMARK   27  A    between atoms: _65  and  _67
REMARK   28  A    between atoms: _67  and  _68
REMARK   29  A    between atoms: _67  and  _70
REMARK   30  A    between atoms: _70  and  _71
REMARK   31  A    between atoms: _74  and  _76
REMARK   32  A    between atoms: _76  and  _77
REMARK   33  A    between atoms: _76  and  _79
REMARK   34  A    between atoms: _79  and  _80
REMARK   35  A    between atoms: _83  and  _85
REMARK   36  A    between atoms: _85  and  _86
REMARK   37  A    between atoms: _85  and  _88
REMARK   38  A    between atoms: _88  and  _89
REMARK   39  A    between atoms: _92  and  _94
REMARK   40  A    between atoms: _94  and  _95
REMARK   41  A    between atoms: _94  and  _97
REMARK   42  A    between atoms: _100  and  _102
REMARK   43  A    between atoms: _102  and  _103
REMARK   44  A    between atoms: _102  and  _105
REMARK   45  A    between atoms: _105  and  _106
REMARK   46  A    between atoms: _109  and  _111
REMARK   47  A    between atoms: _111  and  _112
REMARK   48  A    between atoms: _111  and  _114
REMARK   49  A    between atoms: _114  and  _115
REMARK   50  A    between atoms: _115  and  _116
REMARK   51  A    between atoms: _118  and  _120
REMARK   52  A    between atoms: _120  and  _121
REMARK   53  A    between atoms: _120  and  _123
REMARK   54  A    between atoms: _123  and  _124
REMARK   55  A    between atoms: _127  and  _129
REMARK   56  A    between atoms: _129  and  _130
REMARK   57  A    between atoms: _132  and  _134
REMARK   58  A    between atoms: _134  and  _135
REMARK   59  A    between atoms: _137  and  _139
REMARK   60  A    between atoms: _139  and  _140
REMARK   61  A    between atoms: _139  and  _142
REMARK   62  A    between atoms: _142  and  _143
REMARK   63  A    between atoms: _146  and  _148
REMARK   64  A    between atoms: _148  and  _149
REMARK   65  A    between atoms: _151  and  _153
REMARK   66  A    between atoms: _153  and  _154
REMARK   67  A    between atoms: _156  and  _158
REMARK   68  A    between atoms: _158  and  _159
REMARK   69  A    between atoms: _158  and  _161
REMARK   70  A    between atoms: _161  and  _162
REMARK   71  A    between atoms: _165  and  _167
REMARK   72  A    between atoms: _167  and  _168
REMARK   73  A    between atoms: _167  and  _170
REMARK   74  A    between atoms: _173  and  _175
REMARK   75  A    between atoms: _175  and  _176
REMARK   76  A    between atoms: _175  and  _178
REMARK   77  A    between atoms: _178  and  _179
REMARK   78  A    between atoms: _183  and  _184
REMARK   79  A    between atoms: _189  and  _191
REMARK   80  A    between atoms: _191  and  _192
REMARK   81  A    between atoms: _191  and  _194
REMARK   82  A    between atoms: _194  and  _195
REMARK   83  A    between atoms: _199  and  _200
REMARK   84  A    between atoms: _205  and  _207
REMARK   85  A    between atoms: _207  and  _208
REMARK   86  A    between atoms: _207  and  _210
REMARK   87  A    between atoms: _213  and  _215
REMARK   88  A    between atoms: _215  and  _216
REMARK   89  A    between atoms: _215  and  _218
REMARK   90  A    between atoms: _218  and  _219
REMARK   91  A    between atoms: _224  and  _226
REMARK   92  A    between atoms: _226  and  _227
REMARK   93  A    between atoms: _226  and  _229
REMARK   94  A    between atoms: _229  and  _230
REMARK   95  A    between atoms: _233  and  _235
REMARK   96  A    between atoms: _235  and  _236
REMARK   97  A    between atoms: _235  and  _238
REMARK   98  A    between atoms: _238  and  _239
REMARK   99  A    between atoms: _242  and  _244
REMARK  100  A    between atoms: _244  and  _245
REMARK  101  A    between atoms: _247  and  _249
REMARK  102  A    between atoms: _249  and  _250
REMARK  103  A    between atoms: _249  and  _252
REMARK  104  A    between atoms: _252  and  _253
REMARK  105  A    between atoms: _253  and  _254
REMARK  106  A    between atoms: _254  and  _255
REMARK  107  A    between atoms: _264  and  _266
REMARK  108  A    between atoms: _266  and  _267
REMARK  109  A    between atoms: _266  and  _269
REMARK  110  A    between atoms: _269  and  _270
REMARK  111  A    between atoms: _275  and  _277
REMARK  112  A    between atoms: _277  and  _278
REMARK  113  A    between atoms: _277  and  _280
REMARK  114  A    between atoms: _280  and  _281
REMARK  115  A    between atoms: _281  and  _282
REMARK  116  A    between atoms: _282  and  _283
REMARK  117  A    between atoms: _292  and  _294
REMARK  118  A    between atoms: _294  and  _295
REMARK  119  A    between atoms: _294  and  _297
REMARK  120  A    between atoms: _297  and  _298
REMARK  121  A    between atoms: _301  and  _303
REMARK  122  A    between atoms: _303  and  _304
REMARK  123  A    between atoms: _303  and  _306
REMARK  124  A    between atoms: _306  and  _307
REMARK  125  A    between atoms: _310  and  _312
REMARK  126  A    between atoms: _312  and  _313
REMARK  127  A    between atoms: _312  and  _315
REMARK  128  A    between atoms: _315  and  _316
REMARK  129  A    between atoms: _319  and  _321
REMARK  130  A    between atoms: _321  and  _322
REMARK  131  A    between atoms: _321  and  _324
REMARK  132  A    between atoms: _324  and  _325
REMARK  133  A    between atoms: _328  and  _330
REMARK  134  A    between atoms: _330  and  _331
REMARK  135  A    between atoms: _333  and  _335
REMARK  136  A    between atoms: _335  and  _336
REMARK  137  A    between atoms: _339  and  _341
REMARK  138  A    between atoms: _341  and  _342
REMARK  139  A    between atoms: _341  and  _344
REMARK  140  A    between atoms: _344  and  _345
REMARK  141  A    between atoms: _348  and  _350
REMARK  142  A    between atoms: _350  and  _351
REMARK  143  A    between atoms: _350  and  _353
REMARK  144  A    between atoms: _353  and  _354
REMARK  145  A    between atoms: _357  and  _359
REMARK  146  A    between atoms: _359  and  _360
REMARK  147  A    between atoms: _359  and  _362
REMARK  148  A    between atoms: _362  and  _363
REMARK  149  A    between atoms: _366  and  _368
REMARK  150  A    between atoms: _368  and  _369
REMARK  151  A    between atoms: _368  and  _371
REMARK  152  A    between atoms: _374  and  _376
REMARK  153  A    between atoms: _376  and  _377
REMARK  154  A    between atoms: _376  and  _379
REMARK  155  A    between atoms: _379  and  _380
REMARK  156  A    between atoms: _380  and  _381
REMARK  157  A    between atoms: _381  and  _382
REMARK  158  A    between atoms: _382  and  _383
REMARK  159  A    between atoms: _387  and  _389
REMARK  160  A    between atoms: _389  and  _390
REMARK  161  A    between atoms: _389  and  _392
REMARK  162  A    between atoms: _392  and  _393
REMARK  163  A    between atoms: _393  and  _394
REMARK  164  A    between atoms: _396  and  _398
REMARK  165  A    between atoms: _398  and  _399
REMARK  166  A    between atoms: _398  and  _401
REMARK  167  A    between atoms: _401  and  _402
REMARK  168  A    between atoms: _405  and  _407
REMARK  169  A    between atoms: _407  and  _408
REMARK  170  A    between atoms: _410  and  _412
REMARK  171  A    between atoms: _412  and  _413
REMARK  172  A    between atoms: _415  and  _417
REMARK  173  A    between atoms: _417  and  _418
REMARK  174  A    between atoms: _417  and  _420
REMARK  175  A    between atoms: _420  and  _421
REMARK  176  A    between atoms: _424  and  _426
REMARK  177  A    between atoms: _426  and  _427
REMARK  178  A    between atoms: _429  and  _431
REMARK  179  A    between atoms: _431  and  _432
REMARK  180  A    between atoms: _434  and  _436
REMARK  181  A    between atoms: _436  and  _437
REMARK  182  A    between atoms: _436  and  _439
REMARK  183  A    between atoms: _439  and  _440
REMARK  184  A    between atoms: _446  and  _448
REMARK  185  A    between atoms: _448  and  _449
REMARK  186  A    between atoms: _448  and  _451
REMARK  187  A    between atoms: _451  and  _452
REMARK  188  A    between atoms: _455  and  _457
REMARK  189  A    between atoms: _457  and  _458
REMARK  190  A    between atoms: _457  and  _460
REMARK  191  A    between atoms: _460  and  _461
REMARK  192  A    between atoms: _464  and  _466
REMARK  193  A    between atoms: _466  and  _467
REMARK  194  A    between atoms: _466  and  _469
REMARK  195  A    between atoms: _469  and  _470
REMARK  196  A    between atoms: _474  and  _475
REMARK  197  A    between atoms: _480  and  _482
REMARK  198  A    between atoms: _482  and  _483
REMARK  199  A    between atoms: _482  and  _485
REMARK  200  A    between atoms: _488  and  _490
REMARK  201  A    between atoms: _490  and  _491
REMARK  202  A    between atoms: _490  and  _493
REMARK  203  A    between atoms: _493  and  _494
REMARK  204  A    between atoms: _499  and  _501
REMARK  205  A    between atoms: _501  and  _502
REMARK  206  A    between atoms: _501  and  _504
REMARK  207  A    between atoms: _504  and  _505
REMARK  208  A    between atoms: _508  and  _510
REMARK  209  A    between atoms: _510  and  _511
REMARK  210  A    between atoms: _510  and  _513
REMARK  211  A    between atoms: _513  and  _514
REMARK  212  A    between atoms: _517  and  _519
REMARK  213  A    between atoms: _519  and  _520
REMARK  214  A    between atoms: _522  and  _524
REMARK  215  A    between atoms: _524  and  _525
REMARK  216  A    between atoms: _524  and  _527
REMARK  217  A    between atoms: _527  and  _528
REMARK  218  A    between atoms: _528  and  _529
REMARK  219  A    between atoms: _529  and  _530
REMARK  220  A    between atoms: _539  and  _541
REMARK  221  A    between atoms: _541  and  _542
REMARK  222  A    between atoms: _541  and  _544
REMARK  223  A    between atoms: _544  and  _545
REMARK                            x       y       z     vdW  Elec       q    Type
REMARK                         _______ _______ _______ _____ _____    ______ ____
ROOT
ATOM      1  C   ILE A   5      11.620  27.799  17.970  0.00  0.00    +0.241 C 
ATOM      2  N   ILE A   6      11.929  26.926  18.927  0.00  0.00    -0.297 N 
ATOM      3  H   ILE A   6      12.446  26.059  18.675  0.00  0.00    +0.150 HD
ATOM      4  O   ILE A   5      10.916  28.802  18.170  0.00  0.00    -0.273 OA
ENDROOT
BRANCH   2   5
ATOM      5  CA  ILE A   6      11.564  27.153  20.308  0.00  0.00    +0.149 C 
BRANCH   5   6
ATOM      6  C   ILE A   6      12.744  27.819  20.997  0.00  0.00    +0.241 C 
ATOM      7  N   GLY A   7      12.526  29.070  21.395  0.00  0.00    -0.295 N 
ATOM      8  H   GLY A   7      11.558  29.443  21.327  0.00  0.00    +0.150 HD
ATOM      9  O   ILE A   6      13.822  27.236  21.098  0.00  0.00    -0.273 OA
BRANCH   7  10
ATOM     10  CA  GLY A   7      13.564  29.947  21.920  0.00  0.00    +0.176 C 
BRANCH  10  11
ATOM     11  C   GLY A   7      13.626  29.916  23.428  0.00  0.00    +0.243 C 
ATOM     12  O   GLY A   7      12.814  29.262  24.080  0.00  0.00    -0.273 OA
ATOM     13  N   ARG A   8      14.577  30.651  23.991  0.00  0.00    -0.297 N 
ATOM     14  H   ARG A   8      15.208  31.217  23.388  0.00  0.00    +0.150 HD
BRANCH  13  15
ATOM     15  CA  ARG A   8      14.754  30.681  25.439  0.00  0.00    +0.149 C 
BRANCH  15  16
ATOM     16  C   ARG A   8      13.517  31.138  26.219  0.00  0.00    +0.241 C 
ATOM     17  O   ARG A   8      13.254  30.640  27.313  0.00  0.00    -0.273 OA
ATOM     18  N   ASN A   9      12.731  32.047  25.646  0.00  0.00    -0.298 N 
ATOM     19  H   ASN A   9      12.957  32.391  24.691  0.00  0.00    +0.150 HD
BRANCH  18  20
ATOM     20  CA  ASN A   9      11.557  32.568  26.339  0.00  0.00    +0.146 C 
BRANCH  20  21
ATOM     21  C   ASN A   9      10.591  31.446  26.752  0.00  0.00    +0.227 C 
ATOM     22  O   ASN A   9       9.967  31.521  27.807  0.00  0.00    -0.286 OA
ENDBRANCH  20  21
BRANCH  20  23
ATOM     23  CB  ASN A   9      10.837  33.615  25.492  0.00  0.00    +0.112 C 
BRANCH  23  24
ATOM     24  CG  ASN A   9      10.103  33.011  24.317  0.00  0.00    +0.222 C 
ATOM     25  ND2 ASN A   9       8.786  33.281  24.221  0.00  0.00    -0.329 N 
ATOM     26 HD21 ASN A   9       8.328  33.893  24.926  0.00  0.00    +0.145 HD
ATOM     27 HD22 ASN A   9       8.228  32.877  23.442  0.00  0.00    +0.145 HD
ATOM     28  OD1 ASN A   9      10.703  32.292  23.511  0.00  0.00    -0.275 OA
ENDBRANCH  23  24
ENDBRANCH  20  23
ENDBRANCH  18  20
ENDBRANCH  15  16
BRANCH  15  29
ATOM     29  CB  ARG A   8      15.972  31.527  25.802  0.00  0.00    +0.033 C 
BRANCH  29  30
ATOM     30  CG  ARG A   8      17.292  30.870  25.413  0.00  0.00    +0.045 C 
BRANCH  30  31
ATOM     31  CD  ARG A   8      18.484  31.622  25.993  0.00  0.00    +0.174 C 
BRANCH  31  32
ATOM     32  NE  ARG A   8      18.561  32.997  25.494  0.00  0.00    -0.265 N 
ATOM     33  CZ  ARG A   8      18.196  34.086  26.172  0.00  0.00    +0.342 C 
ATOM     34  NH2 ARG A   8      17.694  34.011  27.396  0.00  0.00    -0.292 N 
ATOM     35 HH21 ARG A   8      17.419  34.879  27.899  0.00  0.00    +0.255 HD
ATOM     36 HH22 ARG A   8      17.575  33.085  27.854  0.00  0.00    +0.255 HD
ATOM     37  NH1 ARG A   8      18.329  35.275  25.600  0.00  0.00    -0.292 N 
ATOM     38 HH11 ARG A   8      18.049  36.134  26.115  0.00  0.00    +0.255 HD
ATOM     39 HH12 ARG A   8      18.713  35.348  24.636  0.00  0.00    +0.255 HD
ATOM     40  HE  ARG A   8      18.931  33.135  24.532  0.00  0.00    +0.259 HD
ENDBRANCH  31  32
ENDBRANCH  30  31
ENDBRANCH  29  30
ENDBRANCH  15  29
ENDBRANCH  13  15
ENDBRANCH  10  11
ENDBRANCH   7  10
ENDBRANCH   5   6
BRANCH   5  41
ATOM     41  CB  ILE A   6      11.175  25.851  21.036  0.00  0.00    +0.027 C 
ATOM     42  CG2 ILE A   6      10.762  26.144  22.491  0.00  0.00    +0.002 C 
BRANCH  41  43
ATOM     43  CG1 ILE A   6      10.059  25.124  20.268  0.00  0.00    +0.002 C 
ATOM     44  CD1 ILE A   6       8.828  25.948  20.019  0.00  0.00    +0.000 C 
ENDBRANCH  41  43
ENDBRANCH   5  41
ENDBRANCH   2   5
BRANCH   1  45
ATOM     45  CA  ILE A   5      12.200  27.517  16.576  0.00  0.00    +0.149 C 
BRANCH  45  47
ATOM     46  C   ASN A   4      11.027  26.211  14.858  0.00  0.00    +0.241 C 
ATOM     47  N   ILE A   5      11.148  27.322  15.585  0.00  0.00    -0.297 N 
ATOM     48  H   ILE A   5      10.459  28.087  15.438  0.00  0.00    +0.150 HD
ATOM     49  O   ASN A   4      11.715  25.196  15.026  0.00  0.00    -0.273 OA
BRANCH  46  50
ATOM     50  CA  ASN A   4       9.959  26.243  13.779  0.00  0.00    +0.158 C 
BRANCH  50  52
ATOM     51  C   VAL A   3      11.428  26.570  11.885  0.00  0.00    +0.241 C 
ATOM     52  N   ASN A   4      10.558  25.807  12.539  0.00  0.00    -0.297 N 
ATOM     53  H   ASN A   4      10.303  24.877  12.150  0.00  0.00    +0.150 HD
ATOM     54  O   VAL A   3      11.677  27.754  12.191  0.00  0.00    -0.273 OA
BRANCH  51  55
ATOM     55  CA  VAL A   3      12.090  25.906  10.690  0.00  0.00    +0.149 C 
BRANCH  55  57
ATOM     56  C   PRO A   2      12.234  26.588   8.374  0.00  0.00    +0.241 C 
ATOM     57  N   VAL A   3      12.327  26.899   9.659  0.00  0.00    -0.297 N 
ATOM     58  H   VAL A   3      12.574  27.871   9.933  0.00  0.00    +0.150 HD
ATOM     59  O   PRO A   2      11.921  25.464   7.991  0.00  0.00    -0.273 OA
BRANCH  56  66
ATOM     60  C   THR A   1      11.425  29.635   8.280  0.00  0.00    +0.244 C 
ATOM     61  O   THR A   1      10.334  29.124   8.088  0.00  0.00    -0.273 OA
ATOM     62  N   PRO A   2      12.572  29.047   7.896  0.00  0.00    -0.272 N 
ATOM     63  CD  PRO A   2      13.918  29.648   7.926  0.00  0.00    +0.094 C 
ATOM     64  CG  PRO A   2      14.820  28.505   7.602  0.00  0.00    +0.024 C 
ATOM     65  CB  PRO A   2      14.023  27.493   6.871  0.00  0.00    +0.031 C 
ATOM     66  CA  PRO A   2      12.580  27.680   7.361  0.00  0.00    +0.152 C 
BRANCH  60  67
ATOM     67  CA  THR A   1      11.520  30.996   8.965  0.00  0.00    +0.172 C 
BRANCH  67  68
ATOM     68  N   THR A   1      10.415  31.843   8.526  0.00  0.00    -0.236 NA
ATOM     69  H   THR A   1       9.595  31.960   9.155  0.00  0.00    +0.142 HD
ENDBRANCH  67  68
BRANCH  67  70
ATOM     70  CB  THR A   1      11.511  30.793  10.498  0.00  0.00    +0.135 C 
ATOM     71  CG2 THR A   1      10.188  30.180  10.982  0.00  0.00    +0.034 C 
BRANCH  70  72
ATOM     72  OG1 THR A   1      12.576  29.916  10.876  0.00  0.00    -0.383 OA
ATOM     73  HG1 THR A   1      12.565  29.790  11.858  0.00  0.00    +0.210 HD
ENDBRANCH  70  72
ENDBRANCH  67  70
ENDBRANCH  60  67
ENDBRANCH  56  66
ENDBRANCH  55  57
BRANCH  55  74
ATOM     74  CB  VAL A   3      13.395  25.227  11.127  0.00  0.00    +0.027 C 
ATOM     75  CG2 VAL A   3      14.357  26.261  11.660  0.00  0.00    +0.002 C 
ATOM     76  CG1 VAL A   3      14.037  24.473   9.966  0.00  0.00    +0.002 C 
ENDBRANCH  55  74
ENDBRANCH  51  55
ENDBRANCH  50  52
BRANCH  50  77
ATOM     77  CB  ASN A   4       8.791  25.342  14.165  0.00  0.00    +0.114 C 
BRANCH  77  78
ATOM     78  CG  ASN A   4       7.635  25.448  13.208  0.00  0.00    +0.222 C 
ATOM     79  OD1 ASN A   4       7.127  26.543  12.950  0.00  0.00    -0.275 OA
ATOM     80  ND2 ASN A   4       7.187  24.312  12.695  0.00  0.00    -0.329 N 
ATOM     81 HD21 ASN A   4       7.648  23.413  12.942  0.00  0.00    +0.145 HD
ATOM     82 HD22 ASN A   4       6.375  24.319  12.046  0.00  0.00    +0.145 HD
ENDBRANCH  77  78
ENDBRANCH  50  77
ENDBRANCH  46  50
ENDBRANCH  45  47
BRANCH  45  83
ATOM     83  CB  ILE A   5      13.093  28.703  16.192  0.00  0.00    +0.027 C 
ATOM     84  CG2 ILE A   5      14.009  29.081  17.384  0.00  0.00    +0.002 C 
BRANCH  83  85
ATOM     85  CG1 ILE A   5      13.911  28.386  14.941  0.00  0.00    +0.002 C 
ATOM     86  CD1 ILE A   5      14.499  29.602  14.248  0.00  0.00    +0.000 C 
ENDBRANCH  83  85
ENDBRANCH  45  83
ENDBRANCH   1  45
TORSDOF 32
REMARK  Name = ../refined-set-2016/2qi0/2qi0_pocket.pdb
REMARK  223 active torsions:
REMARK  status: ('A' for Active; 'I' for Inactive)
REMARK    1  A    between atoms: _1  and  _3
REMARK    2  A    between atoms: _3  and  _4
REMARK    3  A    between atoms: _3  and  _6
REMARK    4  A    between atoms: _6  and  _7
REMARK    5  A    between atoms: _7  and  _8
REMARK    6  A    between atoms: _8  and  _9
REMARK    7  A    between atoms: _18  and  _20
REMARK    8  A    between atoms: _20  and  _21
REMARK    9  A    between atoms: _20  and  _23
REMARK   10  A    between atoms: _23  and  _24
REMARK   11  A    between atoms: _27  and  _29
REMARK   12  A    between atoms: _29  and  _30
REMARK   13  A    between atoms: _29  and  _32
REMARK   14  A    between atoms: _32  and  _33
REMARK   15  A    between atoms: _36  and  _38
REMARK   16  A    between atoms: _38  and  _39
REMARK   17  A    between atoms: _38  and  _41
REMARK   18  A    between atoms: _41  and  _42
REMARK   19  A    between atoms: _45  and  _47
REMARK   20  A    between atoms: _47  and  _48
REMARK   21  A    between atoms: _47  and  _50
REMARK   22  A    between atoms: _50  and  _51
REMARK   23  A    between atoms: _54  and  _56
REMARK   24  A    between atoms: _56  and  _57
REMARK   25  A    between atoms: _59  and  _61
REMARK   26  A    between atoms: _61  and  _62
REMARK   27  A    between atoms: _65  and  _67
REMARK   28  A    between atoms: _67  and  _68
REMARK   29  A    between atoms: _67  and  _70
REMARK   30  A    between atoms: _70  and  _71
REMARK   31  A    between atoms: _74  and  _76
REMARK   32  A    between atoms: _76  and  _77
REMARK   33  A    between atoms: _76  and  _79
REMARK   34  A    between atoms: _79  and  _80
REMARK   35  A    between atoms: _83  and  _85
REMARK   36  A    between atoms: _85  and  _86
REMARK   37  A    between atoms: _85  and  _88
REMARK   38  A    between atoms: _88  and  _89
REMARK   39  A    between atoms: _92  and  _94
REMARK   40  A    between atoms: _94  and  _95
REMARK   41  A    between atoms: _94  and  _97
REMARK   42  A    between atoms: _100  and  _102
REMARK   43  A    between atoms: _102  and  _103
REMARK   44  A    between atoms: _102  and  _105
REMARK   45  A    between atoms: _105  and  _106
REMARK   46  A    between atoms: _109  and  _111
REMARK   47  A    between atoms: _111  and  _112
REMARK   48  A    between atoms: _111  and  _114
REMARK   49  A    between atoms: _114  and  _115
REMARK   50  A    between atoms: _115  and  _116
REMARK   51  A    between atoms: _118  and  _120
REMARK   52  A    between atoms: _120  and  _121
REMARK   53  A    between atoms: _120  and  _123
REMARK   54  A    between atoms: _123  and  _124
REMARK   55  A    between atoms: _127  and  _129
REMARK   56  A    between atoms: _129  and  _130
REMARK   57  A    between atoms: _132  and  _134
REMARK   58  A    between atoms: _134  and  _135
REMARK   59  A    between atoms: _137  and  _139
REMARK   60  A    between atoms: _139  and  _140
REMARK   61  A    between atoms: _139  and  _142
REMARK   62  A    between atoms: _142  and  _143
REMARK   63  A    between atoms: _146  and  _148
REMARK   64  A    between atoms: _148  and  _149
REMARK   65  A    between atoms: _151  and  _153
REMARK   66  A    between atoms: _153  and  _154
REMARK   67  A    between atoms: _156  and  _158
REMARK   68  A    between atoms: _158  and  _159
REMARK   69  A    between atoms: _158  and  _161
REMARK   70  A    between atoms: _161  and  _162
REMARK   71  A    between atoms: _165  and  _167
REMARK   72  A    between atoms: _167  and  _168
REMARK   73  A    between atoms: _167  and  _170
REMARK   74  A    between atoms: _173  and  _175
REMARK   75  A    between atoms: _175  and  _176
REMARK   76  A    between atoms: _175  and  _178
REMARK   77  A    between atoms: _178  and  _179
REMARK   78  A    between atoms: _183  and  _184
REMARK   79  A    between atoms: _189  and  _191
REMARK   80  A    between atoms: _191  and  _192
REMARK   81  A    between atoms: _191  and  _194
REMARK   82  A    between atoms: _194  and  _195
REMARK   83  A    between atoms: _199  and  _200
REMARK   84  A    between atoms: _205  and  _207
REMARK   85  A    between atoms: _207  and  _208
REMARK   86  A    between atoms: _207  and  _210
REMARK   87  A    between atoms: _213  and  _215
REMARK   88  A    between atoms: _215  and  _216
REMARK   89  A    between atoms: _215  and  _218
REMARK   90  A    between atoms: _218  and  _219
REMARK   91  A    between atoms: _224  and  _226
REMARK   92  A    between atoms: _226  and  _227
REMARK   93  A    between atoms: _226  and  _229
REMARK   94  A    between atoms: _229  and  _230
REMARK   95  A    between atoms: _233  and  _235
REMARK   96  A    between atoms: _235  and  _236
REMARK   97  A    between atoms: _235  and  _238
REMARK   98  A    between atoms: _238  and  _239
REMARK   99  A    between atoms: _242  and  _244
REMARK  100  A    between atoms: _244  and  _245
REMARK  101  A    between atoms: _247  and  _249
REMARK  102  A    between atoms: _249  and  _250
REMARK  103  A    between atoms: _249  and  _252
REMARK  104  A    between atoms: _252  and  _253
REMARK  105  A    between atoms: _253  and  _254
REMARK  106  A    between atoms: _254  and  _255
REMARK  107  A    between atoms: _264  and  _266
REMARK  108  A    between atoms: _266  and  _267
REMARK  109  A    between atoms: _266  and  _269
REMARK  110  A    between atoms: _269  and  _270
REMARK  111  A    between atoms: _275  and  _277
REMARK  112  A    between atoms: _277  and  _278
REMARK  113  A    between atoms: _277  and  _280
REMARK  114  A    between atoms: _280  and  _281
REMARK  115  A    between atoms: _281  and  _282
REMARK  116  A    between atoms: _282  and  _283
REMARK  117  A    between atoms: _292  and  _294
REMARK  118  A    between atoms: _294  and  _295
REMARK  119  A    between atoms: _294  and  _297
REMARK  120  A    between atoms: _297  and  _298
REMARK  121  A    between atoms: _301  and  _303
REMARK  122  A    between atoms: _303  and  _304
REMARK  123  A    between atoms: _303  and  _306
REMARK  124  A    between atoms: _306  and  _307
REMARK  125  A    between atoms: _310  and  _312
REMARK  126  A    between atoms: _312  and  _313
REMARK  127  A    between atoms: _312  and  _315
REMARK  128  A    between atoms: _315  and  _316
REMARK  129  A    between atoms: _319  and  _321
REMARK  130  A    between atoms: _321  and  _322
REMARK  131  A    between atoms: _321  and  _324
REMARK  132  A    between atoms: _324  and  _325
REMARK  133  A    between atoms: _328  and  _330
REMARK  134  A    between atoms: _330  and  _331
REMARK  135  A    between atoms: _333  and  _335
REMARK  136  A    between atoms: _335  and  _336
REMARK  137  A    between atoms: _339  and  _341
REMARK  138  A    between atoms: _341  and  _342
REMARK  139  A    between atoms: _341  and  _344
REMARK  140  A    between atoms: _344  and  _345
REMARK  141  A    between atoms: _348  and  _350
REMARK  142  A    between atoms: _350  and  _351
REMARK  143  A    between atoms: _350  and  _353
REMARK  144  A    between atoms: _353  and  _354
REMARK  145  A    between atoms: _357  and  _359
REMARK  146  A    between atoms: _359  and  _360
REMARK  147  A    between atoms: _359  and  _362
REMARK  148  A    between atoms: _362  and  _363
REMARK  149  A    between atoms: _366  and  _368
REMARK  150  A    between atoms: _368  and  _369
REMARK  151  A    between atoms: _368  and  _371
REMARK  152  A    between atoms: _374  and  _376
REMARK  153  A    between atoms: _376  and  _377
REMARK  154  A    between atoms: _376  and  _379
REMARK  155  A    between atoms: _379  and  _380
REMARK  156  A    between atoms: _380  and  _381
REMARK  157  A    between atoms: _381  and  _382
REMARK  158  A    between atoms: _382  and  _383
REMARK  159  A    between atoms: _387  and  _389
REMARK  160  A    between atoms: _389  and  _390
REMARK  161  A    between atoms: _389  and  _392
REMARK  162  A    between atoms: _392  and  _393
REMARK  163  A    between atoms: _393  and  _394
REMARK  164  A    between atoms: _396  and  _398
REMARK  165  A    between atoms: _398  and  _399
REMARK  166  A    between atoms: _398  and  _401
REMARK  167  A    between atoms: _401  and  _402
REMARK  168  A    between atoms: _405  and  _407
REMARK  169  A    between atoms: _407  and  _408
REMARK  170  A    between atoms: _410  and  _412
REMARK  171  A    between atoms: _412  and  _413
REMARK  172  A    between atoms: _415  and  _417
REMARK  173  A    between atoms: _417  and  _418
REMARK  174  A    between atoms: _417  and  _420
REMARK  175  A    between atoms: _420  and  _421
REMARK  176  A    between atoms: _424  and  _426
REMARK  177  A    between atoms: _426  and  _427
REMARK  178  A    between atoms: _429  and  _431
REMARK  179  A    between atoms: _431  and  _432
REMARK  180  A    between atoms: _434  and  _436
REMARK  181  A    between atoms: _436  and  _437
REMARK  182  A    between atoms: _436  and  _439
REMARK  183  A    between atoms: _439  and  _440
REMARK  184  A    between atoms: _446  and  _448
REMARK  185  A    between atoms: _448  and  _449
REMARK  186  A    between atoms: _448  and  _451
REMARK  187  A    between atoms: _451  and  _452
REMARK  188  A    between atoms: _455  and  _457
REMARK  189  A    between atoms: _457  and  _458
REMARK  190  A    between atoms: _457  and  _460
REMARK  191  A    between atoms: _460  and  _461
REMARK  192  A    between atoms: _464  and  _466
REMARK  193  A    between atoms: _466  and  _467
REMARK  194  A    between atoms: _466  and  _469
REMARK  195  A    between atoms: _469  and  _470
REMARK  196  A    between atoms: _474  and  _475
REMARK  197  A    between atoms: _480  and  _482
REMARK  198  A    between atoms: _482  and  _483
REMARK  199  A    between atoms: _482  and  _485
REMARK  200  A    between atoms: _488  and  _490
REMARK  201  A    between atoms: _490  and  _491
REMARK  202  A    between atoms: _490  and  _493
REMARK  203  A    between atoms: _493  and  _494
REMARK  204  A    between atoms: _499  and  _501
REMARK  205  A    between atoms: _501  and  _502
REMARK  206  A    between atoms: _501  and  _504
REMARK  207  A    between atoms: _504  and  _505
REMARK  208  A    between atoms: _508  and  _510
REMARK  209  A    between atoms: _510  and  _511
REMARK  210  A    between atoms: _510  and  _513
REMARK  211  A    between atoms: _513  and  _514
REMARK  212  A    between atoms: _517  and  _519
REMARK  213  A    between atoms: _519  and  _520
REMARK  214  A    between atoms: _522  and  _524
REMARK  215  A    between atoms: _524  and  _525
REMARK  216  A    between atoms: _524  and  _527
REMARK  217  A    between atoms: _527  and  _528
REMARK  218  A    between atoms: _528  and  _529
REMARK  219  A    between atoms: _529  and  _530
REMARK  220  A    between atoms: _539  and  _541
REMARK  221  A    between atoms: _541  and  _542
REMARK  222  A    between atoms: _541  and  _544
REMARK  223  A    between atoms: _544  and  _545
REMARK                            x       y       z     vdW  Elec       q    Type
REMARK                         _______ _______ _______ _____ _____    ______ ____
ROOT
ATOM      1  O   HOH     1      20.430  21.855  15.448  0.00  0.00    +0.000 OA
ENDROOT
TORSDOF 0
REMARK  Name = ../refined-set-2016/2qi0/2qi0_pocket.pdb
REMARK  223 active torsions:
REMARK  status: ('A' for Active; 'I' for Inactive)
REMARK    1  A    between atoms: _1  and  _3
REMARK    2  A    between atoms: _3  and  _4
REMARK    3  A    between atoms: _3  and  _6
REMARK    4  A    between atoms: _6  and  _7
REMARK    5  A    between atoms: _7  and  _8
REMARK    6  A    between atoms: _8  and  _9
REMARK    7  A    between atoms: _18  and  _20
REMARK    8  A    between atoms: _20  and  _21
REMARK    9  A    between atoms: _20  and  _23
REMARK   10  A    between atoms: _23  and  _24
REMARK   11  A    between atoms: _27  and  _29
REMARK   12  A    between atoms: _29  and  _30
REMARK   13  A    between atoms: _29  and  _32
REMARK   14  A    between atoms: _32  and  _33
REMARK   15  A    between atoms: _36  and  _38
REMARK   16  A    between atoms: _38  and  _39
REMARK   17  A    between atoms: _38  and  _41
REMARK   18  A    between atoms: _41  and  _42
REMARK   19  A    between atoms: _45  and  _47
REMARK   20  A    between atoms: _47  and  _48
REMARK   21  A    between atoms: _47  and  _50
REMARK   22  A    between atoms: _50  and  _51
REMARK   23  A    between atoms: _54  and  _56
REMARK   24  A    between atoms: _56  and  _57
REMARK   25  A    between atoms: _59  and  _61
REMARK   26  A    between atoms: _61  and  _62
REMARK   27  A    between atoms: _65  and  _67
REMARK   28  A    between atoms: _67  and  _68
REMARK   29  A    between atoms: _67  and  _70
REMARK   30  A    between atoms: _70  and  _71
REMARK   31  A    between atoms: _74  and  _76
REMARK   32  A    between atoms: _76  and  _77
REMARK   33  A    between atoms: _76  and  _79
REMARK   34  A    between atoms: _79  and  _80
REMARK   35  A    between atoms: _83  and  _85
REMARK   36  A    between atoms: _85  and  _86
REMARK   37  A    between atoms: _85  and  _88
REMARK   38  A    between atoms: _88  and  _89
REMARK   39  A    between atoms: _92  and  _94
REMARK   40  A    between atoms: _94  and  _95
REMARK   41  A    between atoms: _94  and  _97
REMARK   42  A    between atoms: _100  and  _102
REMARK   43  A    between atoms: _102  and  _103
REMARK   44  A    between atoms: _102  and  _105
REMARK   45  A    between atoms: _105  and  _106
REMARK   46  A    between atoms: _109  and  _111
REMARK   47  A    between atoms: _111  and  _112
REMARK   48  A    between atoms: _111  and  _114
REMARK   49  A    between atoms: _114  and  _115
REMARK   50  A    between atoms: _115  and  _116
REMARK   51  A    between atoms: _118  and  _120
REMARK   52  A    between atoms: _120  and  _121
REMARK   53  A    between atoms: _120  and  _123
REMARK   54  A    between atoms: _123  and  _124
REMARK   55  A    between atoms: _127  and  _129
REMARK   56  A    between atoms: _129  and  _130
REMARK   57  A    between atoms: _132  and  _134
REMARK   58  A    between atoms: _134  and  _135
REMARK   59  A    between atoms: _137  and  _139
REMARK   60  A    between atoms: _139  and  _140
REMARK   61  A    between atoms: _139  and  _142
REMARK   62  A    between atoms: _142  and  _143
REMARK   63  A    between atoms: _146  and  _148
REMARK   64  A    between atoms: _148  and  _149
REMARK   65  A    between atoms: _151  and  _153
REMARK   66  A    between atoms: _153  and  _154
REMARK   67  A    between atoms: _156  and  _158
REMARK   68  A    between atoms: _158  and  _159
REMARK   69  A    between atoms: _158  and  _161
REMARK   70  A    between atoms: _161  and  _162
REMARK   71  A    between atoms: _165  and  _167
REMARK   72  A    between atoms: _167  and  _168
REMARK   73  A    between atoms: _167  and  _170
REMARK   74  A    between atoms: _173  and  _175
REMARK   75  A    between atoms: _175  and  _176
REMARK   76  A    between atoms: _175  and  _178
REMARK   77  A    between atoms: _178  and  _179
REMARK   78  A    between atoms: _183  and  _184
REMARK   79  A    between atoms: _189  and  _191
REMARK   80  A    between atoms: _191  and  _192
REMARK   81  A    between atoms: _191  and  _194
REMARK   82  A    between atoms: _194  and  _195
REMARK   83  A    between atoms: _199  and  _200
REMARK   84  A    between atoms: _205  and  _207
REMARK   85  A    between atoms: _207  and  _208
REMARK   86  A    between atoms: _207  and  _210
REMARK   87  A    between atoms: _213  and  _215
REMARK   88  A    between atoms: _215  and  _216
REMARK   89  A    between atoms: _215  and  _218
REMARK   90  A    between atoms: _218  and  _219
REMARK   91  A    between atoms: _224  and  _226
REMARK   92  A    between atoms: _226  and  _227
REMARK   93  A    between atoms: _226  and  _229
REMARK   94  A    between atoms: _229  and  _230
REMARK   95  A    between atoms: _233  and  _235
REMARK   96  A    between atoms: _235  and  _236
REMARK   97  A    between atoms: _235  and  _238
REMARK   98  A    between atoms: _238  and  _239
REMARK   99  A    between atoms: _242  and  _244
REMARK  100  A    between atoms: _244  and  _245
REMARK  101  A    between atoms: _247  and  _249
REMARK  102  A    between atoms: _249  and  _250
REMARK  103  A    between atoms: _249  and  _252
REMARK  104  A    between atoms: _252  and  _253
REMARK  105  A    between atoms: _253  and  _254
REMARK  106  A    between atoms: _254  and  _255
REMARK  107  A    between atoms: _264  and  _266
REMARK  108  A    between atoms: _266  and  _267
REMARK  109  A    between atoms: _266  and  _269
REMARK  110  A    between atoms: _269  and  _270
REMARK  111  A    between atoms: _275  and  _277
REMARK  112  A    between atoms: _277  and  _278
REMARK  113  A    between atoms: _277  and  _280
REMARK  114  A    between atoms: _280  and  _281
REMARK  115  A    between atoms: _281  and  _282
REMARK  116  A    between atoms: _282  and  _283
REMARK  117  A    between atoms: _292  and  _294
REMARK  118  A    between atoms: _294  and  _295
REMARK  119  A    between atoms: _294  and  _297
REMARK  120  A    between atoms: _297  and  _298
REMARK  121  A    between atoms: _301  and  _303
REMARK  122  A    between atoms: _303  and  _304
REMARK  123  A    between atoms: _303  and  _306
REMARK  124  A    between atoms: _306  and  _307
REMARK  125  A    between atoms: _310  and  _312
REMARK  126  A    between atoms: _312  and  _313
REMARK  127  A    between atoms: _312  and  _315
REMARK  128  A    between atoms: _315  and  _316
REMARK  129  A    between atoms: _319  and  _321
REMARK  130  A    between atoms: _321  and  _322
REMARK  131  A    between atoms: _321  and  _324
REMARK  132  A    between atoms: _324  and  _325
REMARK  133  A    between atoms: _328  and  _330
REMARK  134  A    between atoms: _330  and  _331
REMARK  135  A    between atoms: _333  and  _335
REMARK  136  A    between atoms: _335  and  _336
REMARK  137  A    between atoms: _339  and  _341
REMARK  138  A    between atoms: _341  and  _342
REMARK  139  A    between atoms: _341  and  _344
REMARK  140  A    between atoms: _344  and  _345
REMARK  141  A    between atoms: _348  and  _350
REMARK  142  A    between atoms: _350  and  _351
REMARK  143  A    between atoms: _350  and  _353
REMARK  144  A    between atoms: _353  and  _354
REMARK  145  A    between atoms: _357  and  _359
REMARK  146  A    between atoms: _359  and  _360
REMARK  147  A    between atoms: _359  and  _362
REMARK  148  A    between atoms: _362  and  _363
REMARK  149  A    between atoms: _366  and  _368
REMARK  150  A    between atoms: _368  and  _369
REMARK  151  A    between atoms: _368  and  _371
REMARK  152  A    between atoms: _374  and  _376
REMARK  153  A    between atoms: _376  and  _377
REMARK  154  A    between atoms: _376  and  _379
REMARK  155  A    between atoms: _379  and  _380
REMARK  156  A    between atoms: _380  and  _381
REMARK  157  A    between atoms: _381  and  _382
REMARK  158  A    between atoms: _382  and  _383
REMARK  159  A    between atoms: _387  and  _389
REMARK  160  A    between atoms: _389  and  _390
REMARK  161  A    between atoms: _389  and  _392
REMARK  162  A    between atoms: _392  and  _393
REMARK  163  A    between atoms: _393  and  _394
REMARK  164  A    between atoms: _396  and  _398
REMARK  165  A    between atoms: _398  and  _399
REMARK  166  A    between atoms: _398  and  _401
REMARK  167  A    between atoms: _401  and  _402
REMARK  168  A    between atoms: _405  and  _407
REMARK  169  A    between atoms: _407  and  _408
REMARK  170  A    between atoms: _410  and  _412
REMARK  171  A    between atoms: _412  and  _413
REMARK  172  A    between atoms: _415  and  _417
REMARK  173  A    between atoms: _417  and  _418
REMARK  174  A    between atoms: _417  and  _420
REMARK  175  A    between atoms: _420  and  _421
REMARK  176  A    between atoms: _424  and  _426
REMARK  177  A    between atoms: _426  and  _427
REMARK  178  A    between atoms: _429  and  _431
REMARK  179  A    between atoms: _431  and  _432
REMARK  180  A    between atoms: _434  and  _436
REMARK  181  A    between atoms: _436  and  _437
REMARK  182  A    between atoms: _436  and  _439
REMARK  183  A    between atoms: _439  and  _440
REMARK  184  A    between atoms: _446  and  _448
REMARK  185  A    between atoms: _448  and  _449
REMARK  186  A    between atoms: _448  and  _451
REMARK  187  A    between atoms: _451  and  _452
REMARK  188  A    between atoms: _455  and  _457
REMARK  189  A    between atoms: _457  and  _458
REMARK  190  A    between atoms: _457  and  _460
REMARK  191  A    between atoms: _460  and  _461
REMARK  192  A    between atoms: _464  and  _466
REMARK  193  A    between atoms: _466  and  _467
REMARK  194  A    between atoms: _466  and  _469
REMARK  195  A    between atoms: _469  and  _470
REMARK  196  A    between atoms: _474  and  _475
REMARK  197  A    between atoms: _480  and  _482
REMARK  198  A    between atoms: _482  and  _483
REMARK  199  A    between atoms: _482  and  _485
REMARK  200  A    between atoms: _488  and  _490
REMARK  201  A    between atoms: _490  and  _491
REMARK  202  A    between atoms: _490  and  _493
REMARK  203  A    between atoms: _493  and  _494
REMARK  204  A    between atoms: _499  and  _501
REMARK  205  A    between atoms: _501  and  _502
REMARK  206  A    between atoms: _501  and  _504
REMARK  207  A    between atoms: _504  and  _505
REMARK  208  A    between atoms: _508  and  _510
REMARK  209  A    between atoms: _510  and  _511
REMARK  210  A    between atoms: _510  and  _513
REMARK  211  A    between atoms: _513  and  _514
REMARK  212  A    between atoms: _517  and  _519
REMARK  213  A    between atoms: _519  and  _520
REMARK  214  A    between atoms: _522  and  _524
REMARK  215  A    between atoms: _524  and  _525
REMARK  216  A    between atoms: _524  and  _527
REMARK  217  A    between atoms: _527  and  _528
REMARK  218  A    between atoms: _528  and  _529
REMARK  219  A    between atoms: _529  and  _530
REMARK  220  A    between atoms: _539  and  _541
REMARK  221  A    between atoms: _541  and  _542
REMARK  222  A    between atoms: _541  and  _544
REMARK  223  A    between atoms: _544  and  _545
REMARK                            x       y       z     vdW  Elec       q    Type
REMARK                         _______ _______ _______ _____ _____    ______ ____
ROOT
ATOM      1  O   HOH     1      31.481  23.757  12.341  0.00  0.00    +0.000 OA
ENDROOT
TORSDOF 0
REMARK  Name = ../refined-set-2016/2qi0/2qi0_pocket.pdb
REMARK  223 active torsions:
REMARK  status: ('A' for Active; 'I' for Inactive)
REMARK    1  A    between atoms: _1  and  _3
REMARK    2  A    between atoms: _3  and  _4
REMARK    3  A    between atoms: _3  and  _6
REMARK    4  A    between atoms: _6  and  _7
REMARK    5  A    between atoms: _7  and  _8
REMARK    6  A    between atoms: _8  and  _9
REMARK    7  A    between atoms: _18  and  _20
REMARK    8  A    between atoms: _20  and  _21
REMARK    9  A    between atoms: _20  and  _23
REMARK   10  A    between atoms: _23  and  _24
REMARK   11  A    between atoms: _27  and  _29
REMARK   12  A    between atoms: _29  and  _30
REMARK   13  A    between atoms: _29  and  _32
REMARK   14  A    between atoms: _32  and  _33
REMARK   15  A    between atoms: _36  and  _38
REMARK   16  A    between atoms: _38  and  _39
REMARK   17  A    between atoms: _38  and  _41
REMARK   18  A    between atoms: _41  and  _42
REMARK   19  A    between atoms: _45  and  _47
REMARK   20  A    between atoms: _47  and  _48
REMARK   21  A    between atoms: _47  and  _50
REMARK   22  A    between atoms: _50  and  _51
REMARK   23  A    between atoms: _54  and  _56
REMARK   24  A    between atoms: _56  and  _57
REMARK   25  A    between atoms: _59  and  _61
REMARK   26  A    between atoms: _61  and  _62
REMARK   27  A    between atoms: _65  and  _67
REMARK   28  A    between atoms: _67  and  _68
REMARK   29  A    between atoms: _67  and  _70
REMARK   30  A    between atoms: _70  and  _71
REMARK   31  A    between atoms: _74  and  _76
REMARK   32  A    between atoms: _76  and  _77
REMARK   33  A    between atoms: _76  and  _79
REMARK   34  A    between atoms: _79  and  _80
REMARK   35  A    between atoms: _83  and  _85
REMARK   36  A    between atoms: _85  and  _86
REMARK   37  A    between atoms: _85  and  _88
REMARK   38  A    between atoms: _88  and  _89
REMARK   39  A    between atoms: _92  and  _94
REMARK   40  A    between atoms: _94  and  _95
REMARK   41  A    between atoms: _94  and  _97
REMARK   42  A    between atoms: _100  and  _102
REMARK   43  A    between atoms: _102  and  _103
REMARK   44  A    between atoms: _102  and  _105
REMARK   45  A    between atoms: _105  and  _106
REMARK   46  A    between atoms: _109  and  _111
REMARK   47  A    between atoms: _111  and  _112
REMARK   48  A    between atoms: _111  and  _114
REMARK   49  A    between atoms: _114  and  _115
REMARK   50  A    between atoms: _115  and  _116
REMARK   51  A    between atoms: _118  and  _120
REMARK   52  A    between atoms: _120  and  _121
REMARK   53  A    between atoms: _120  and  _123
REMARK   54  A    between atoms: _123  and  _124
REMARK   55  A    between atoms: _127  and  _129
REMARK   56  A    between atoms: _129  and  _130
REMARK   57  A    between atoms: _132  and  _134
REMARK   58  A    between atoms: _134  and  _135
REMARK   59  A    between atoms: _137  and  _139
REMARK   60  A    between atoms: _139  and  _140
REMARK   61  A    between atoms: _139  and  _142
REMARK   62  A    between atoms: _142  and  _143
REMARK   63  A    between atoms: _146  and  _148
REMARK   64  A    between atoms: _148  and  _149
REMARK   65  A    between atoms: _151  and  _153
REMARK   66  A    between atoms: _153  and  _154
REMARK   67  A    between atoms: _156  and  _158
REMARK   68  A    between atoms: _158  and  _159
REMARK   69  A    between atoms: _158  and  _161
REMARK   70  A    between atoms: _161  and  _162
REMARK   71  A    between atoms: _165  and  _167
REMARK   72  A    between atoms: _167  and  _168
REMARK   73  A    between atoms: _167  and  _170
REMARK   74  A    between atoms: _173  and  _175
REMARK   75  A    between atoms: _175  and  _176
REMARK   76  A    between atoms: _175  and  _178
REMARK   77  A    between atoms: _178  and  _179
REMARK   78  A    between atoms: _183  and  _184
REMARK   79  A    between atoms: _189  and  _191
REMARK   80  A    between atoms: _191  and  _192
REMARK   81  A    between atoms: _191  and  _194
REMARK   82  A    between atoms: _194  and  _195
REMARK   83  A    between atoms: _199  and  _200
REMARK   84  A    between atoms: _205  and  _207
REMARK   85  A    between atoms: _207  and  _208
REMARK   86  A    between atoms: _207  and  _210
REMARK   87  A    between atoms: _213  and  _215
REMARK   88  A    between atoms: _215  and  _216
REMARK   89  A    between atoms: _215  and  _218
REMARK   90  A    between atoms: _218  and  _219
REMARK   91  A    between atoms: _224  and  _226
REMARK   92  A    between atoms: _226  and  _227
REMARK   93  A    between atoms: _226  and  _229
REMARK   94  A    between atoms: _229  and  _230
REMARK   95  A    between atoms: _233  and  _235
REMARK   96  A    between atoms: _235  and  _236
REMARK   97  A    between atoms: _235  and  _238
REMARK   98  A    between atoms: _238  and  _239
REMARK   99  A    between atoms: _242  and  _244
REMARK  100  A    between atoms: _244  and  _245
REMARK  101  A    between atoms: _247  and  _249
REMARK  102  A    between atoms: _249  and  _250
REMARK  103  A    between atoms: _249  and  _252
REMARK  104  A    between atoms: _252  and  _253
REMARK  105  A    between atoms: _253  and  _254
REMARK  106  A    between atoms: _254  and  _255
REMARK  107  A    between atoms: _264  and  _266
REMARK  108  A    between atoms: _266  and  _267
REMARK  109  A    between atoms: _266  and  _269
REMARK  110  A    between atoms: _269  and  _270
REMARK  111  A    between atoms: _275  and  _277
REMARK  112  A    between atoms: _277  and  _278
REMARK  113  A    between atoms: _277  and  _280
REMARK  114  A    between atoms: _280  and  _281
REMARK  115  A    between atoms: _281  and  _282
REMARK  116  A    between atoms: _282  and  _283
REMARK  117  A    between atoms: _292  and  _294
REMARK  118  A    between atoms: _294  and  _295
REMARK  119  A    between atoms: _294  and  _297
REMARK  120  A    between atoms: _297  and  _298
REMARK  121  A    between atoms: _301  and  _303
REMARK  122  A    between atoms: _303  and  _304
REMARK  123  A    between atoms: _303  and  _306
REMARK  124  A    between atoms: _306  and  _307
REMARK  125  A    between atoms: _310  and  _312
REMARK  126  A    between atoms: _312  and  _313
REMARK  127  A    between atoms: _312  and  _315
REMARK  128  A    between atoms: _315  and  _316
REMARK  129  A    between atoms: _319  and  _321
REMARK  130  A    between atoms: _321  and  _322
REMARK  131  A    between atoms: _321  and  _324
REMARK  132  A    between atoms: _324  and  _325
REMARK  133  A    between atoms: _328  and  _330
REMARK  134  A    between atoms: _330  and  _331
REMARK  135  A    between atoms: _333  and  _335
REMARK  136  A    between atoms: _335  and  _336
REMARK  137  A    between atoms: _339  and  _341
REMARK  138  A    between atoms: _341  and  _342
REMARK  139  A    between atoms: _341  and  _344
REMARK  140  A    between atoms: _344  and  _345
REMARK  141  A    between atoms: _348  and  _350
REMARK  142  A    between atoms: _350  and  _351
REMARK  143  A    between atoms: _350  and  _353
REMARK  144  A    between atoms: _353  and  _354
REMARK  145  A    between atoms: _357  and  _359
REMARK  146  A    between atoms: _359  and  _360
REMARK  147  A    between atoms: _359  and  _362
REMARK  148  A    between atoms: _362  and  _363
REMARK  149  A    between atoms: _366  and  _368
REMARK  150  A    between atoms: _368  and  _369
REMARK  151  A    between atoms: _368  and  _371
REMARK  152  A    between atoms: _374  and  _376
REMARK  153  A    between atoms: _376  and  _377
REMARK  154  A    between atoms: _376  and  _379
REMARK  155  A    between atoms: _379  and  _380
REMARK  156  A    between atoms: _380  and  _381
REMARK  157  A    between atoms: _381  and  _382
REMARK  158  A    between atoms: _382  and  _383
REMARK  159  A    between atoms: _387  and  _389
REMARK  160  A    between atoms: _389  and  _390
REMARK  161  A    between atoms: _389  and  _392
REMARK  162  A    between atoms: _392  and  _393
REMARK  163  A    between atoms: _393  and  _394
REMARK  164  A    between atoms: _396  and  _398
REMARK  165  A    between atoms: _398  and  _399
REMARK  166  A    between atoms: _398  and  _401
REMARK  167  A    between atoms: _401  and  _402
REMARK  168  A    between atoms: _405  and  _407
REMARK  169  A    between atoms: _407  and  _408
REMARK  170  A    between atoms: _410  and  _412
REMARK  171  A    between atoms: _412  and  _413
REMARK  172  A    between atoms: _415  and  _417
REMARK  173  A    between atoms: _417  and  _418
REMARK  174  A    between atoms: _417  and  _420
REMARK  175  A    between atoms: _420  and  _421
REMARK  176  A    between atoms: _424  and  _426
REMARK  177  A    between atoms: _426  and  _427
REMARK  178  A    between atoms: _429  and  _431
REMARK  179  A    between atoms: _431  and  _432
REMARK  180  A    between atoms: _434  and  _436
REMARK  181  A    between atoms: _436  and  _437
REMARK  182  A    between atoms: _436  and  _439
REMARK  183  A    between atoms: _439  and  _440
REMARK  184  A    between atoms: _446  and  _448
REMARK  185  A    between atoms: _448  and  _449
REMARK  186  A    between atoms: _448  and  _451
REMARK  187  A    between atoms: _451  and  _452
REMARK  188  A    between atoms: _455  and  _457
REMARK  189  A    between atoms: _457  and  _458
REMARK  190  A    between atoms: _457  and  _460
REMARK  191  A    between atoms: _460  and  _461
REMARK  192  A    between atoms: _464  and  _466
REMARK  193  A    between atoms: _466  and  _467
REMARK  194  A    between atoms: _466  and  _469
REMARK  195  A    between atoms: _469  and  _470
REMARK  196  A    between atoms: _474  and  _475
REMARK  197  A    between atoms: _480  and  _482
REMARK  198  A    between atoms: _482  and  _483
REMARK  199  A    between atoms: _482  and  _485
REMARK  200  A    between atoms: _488  and  _490
REMARK  201  A    between atoms: _490  and  _491
REMARK  202  A    between atoms: _490  and  _493
REMARK  203  A    between atoms: _493  and  _494
REMARK  204  A    between atoms: _499  and  _501
REMARK  205  A    between atoms: _501  and  _502
REMARK  206  A    between atoms: _501  and  _504
REMARK  207  A    between atoms: _504  and  _505
REMARK  208  A    between atoms: _508  and  _510
REMARK  209  A    between atoms: _510  and  _511
REMARK  210  A    between atoms: _510  and  _513
REMARK  211  A    between atoms: _513  and  _514
REMARK  212  A    between atoms: _517  and  _519
REMARK  213  A    between atoms: _519  and  _520
REMARK  214  A    between atoms: _522  and  _524
REMARK  215  A    between atoms: _524  and  _525
REMARK  216  A    between atoms: _524  and  _527
REMARK  217  A    between atoms: _527  and  _528
REMARK  218  A    between atoms: _528  and  _529
REMARK  219  A    between atoms: _529  and  _530
REMARK  220  A    between atoms: _539  and  _541
REMARK  221  A    between atoms: _541  and  _542
REMARK  222  A    between atoms: _541  and  _544
REMARK  223  A    between atoms: _544  and  _545
REMARK                            x       y       z     vdW  Elec       q    Type
REMARK                         _______ _______ _______ _____ _____    ______ ____
ROOT
ATOM      1  O   HOH     1      19.945  23.333  13.214  0.00  0.00    +0.000 OA
ENDROOT
TORSDOF 0
REMARK  Name = ../refined-set-2016/2qi0/2qi0_pocket.pdb
REMARK  223 active torsions:
REMARK  status: ('A' for Active; 'I' for Inactive)
REMARK    1  A    between atoms: _1  and  _3
REMARK    2  A    between atoms: _3  and  _4
REMARK    3  A    between atoms: _3  and  _6
REMARK    4  A    between atoms: _6  and  _7
REMARK    5  A    between atoms: _7  and  _8
REMARK    6  A    between atoms: _8  and  _9
REMARK    7  A    between atoms: _18  and  _20
REMARK    8  A    between atoms: _20  and  _21
REMARK    9  A    between atoms: _20  and  _23
REMARK   10  A    between atoms: _23  and  _24
REMARK   11  A    between atoms: _27  and  _29
REMARK   12  A    between atoms: _29  and  _30
REMARK   13  A    between atoms: _29  and  _32
REMARK   14  A    between atoms: _32  and  _33
REMARK   15  A    between atoms: _36  and  _38
REMARK   16  A    between atoms: _38  and  _39
REMARK   17  A    between atoms: _38  and  _41
REMARK   18  A    between atoms: _41  and  _42
REMARK   19  A    between atoms: _45  and  _47
REMARK   20  A    between atoms: _47  and  _48
REMARK   21  A    between atoms: _47  and  _50
REMARK   22  A    between atoms: _50  and  _51
REMARK   23  A    between atoms: _54  and  _56
REMARK   24  A    between atoms: _56  and  _57
REMARK   25  A    between atoms: _59  and  _61
REMARK   26  A    between atoms: _61  and  _62
REMARK   27  A    between atoms: _65  and  _67
REMARK   28  A    between atoms: _67  and  _68
REMARK   29  A    between atoms: _67  and  _70
REMARK   30  A    between atoms: _70  and  _71
REMARK   31  A    between atoms: _74  and  _76
REMARK   32  A    between atoms: _76  and  _77
REMARK   33  A    between atoms: _76  and  _79
REMARK   34  A    between atoms: _79  and  _80
REMARK   35  A    between atoms: _83  and  _85
REMARK   36  A    between atoms: _85  and  _86
REMARK   37  A    between atoms: _85  and  _88
REMARK   38  A    between atoms: _88  and  _89
REMARK   39  A    between atoms: _92  and  _94
REMARK   40  A    between atoms: _94  and  _95
REMARK   41  A    between atoms: _94  and  _97
REMARK   42  A    between atoms: _100  and  _102
REMARK   43  A    between atoms: _102  and  _103
REMARK   44  A    between atoms: _102  and  _105
REMARK   45  A    between atoms: _105  and  _106
REMARK   46  A    between atoms: _109  and  _111
REMARK   47  A    between atoms: _111  and  _112
REMARK   48  A    between atoms: _111  and  _114
REMARK   49  A    between atoms: _114  and  _115
REMARK   50  A    between atoms: _115  and  _116
REMARK   51  A    between atoms: _118  and  _120
REMARK   52  A    between atoms: _120  and  _121
REMARK   53  A    between atoms: _120  and  _123
REMARK   54  A    between atoms: _123  and  _124
REMARK   55  A    between atoms: _127  and  _129
REMARK   56  A    between atoms: _129  and  _130
REMARK   57  A    between atoms: _132  and  _134
REMARK   58  A    between atoms: _134  and  _135
REMARK   59  A    between atoms: _137  and  _139
REMARK   60  A    between atoms: _139  and  _140
REMARK   61  A    between atoms: _139  and  _142
REMARK   62  A    between atoms: _142  and  _143
REMARK   63  A    between atoms: _146  and  _148
REMARK   64  A    between atoms: _148  and  _149
REMARK   65  A    between atoms: _151  and  _153
REMARK   66  A    between atoms: _153  and  _154
REMARK   67  A    between atoms: _156  and  _158
REMARK   68  A    between atoms: _158  and  _159
REMARK   69  A    between atoms: _158  and  _161
REMARK   70  A    between atoms: _161  and  _162
REMARK   71  A    between atoms: _165  and  _167
REMARK   72  A    between atoms: _167  and  _168
REMARK   73  A    between atoms: _167  and  _170
REMARK   74  A    between atoms: _173  and  _175
REMARK   75  A    between atoms: _175  and  _176
REMARK   76  A    between atoms: _175  and  _178
REMARK   77  A    between atoms: _178  and  _179
REMARK   78  A    between atoms: _183  and  _184
REMARK   79  A    between atoms: _189  and  _191
REMARK   80  A    between atoms: _191  and  _192
REMARK   81  A    between atoms: _191  and  _194
REMARK   82  A    between atoms: _194  and  _195
REMARK   83  A    between atoms: _199  and  _200
REMARK   84  A    between atoms: _205  and  _207
REMARK   85  A    between atoms: _207  and  _208
REMARK   86  A    between atoms: _207  and  _210
REMARK   87  A    between atoms: _213  and  _215
REMARK   88  A    between atoms: _215  and  _216
REMARK   89  A    between atoms: _215  and  _218
REMARK   90  A    between atoms: _218  and  _219
REMARK   91  A    between atoms: _224  and  _226
REMARK   92  A    between atoms: _226  and  _227
REMARK   93  A    between atoms: _226  and  _229
REMARK   94  A    between atoms: _229  and  _230
REMARK   95  A    between atoms: _233  and  _235
REMARK   96  A    between atoms: _235  and  _236
REMARK   97  A    between atoms: _235  and  _238
REMARK   98  A    between atoms: _238  and  _239
REMARK   99  A    between atoms: _242  and  _244
REMARK  100  A    between atoms: _244  and  _245
REMARK  101  A    between atoms: _247  and  _249
REMARK  102  A    between atoms: _249  and  _250
REMARK  103  A    between atoms: _249  and  _252
REMARK  104  A    between atoms: _252  and  _253
REMARK  105  A    between atoms: _253  and  _254
REMARK  106  A    between atoms: _254  and  _255
REMARK  107  A    between atoms: _264  and  _266
REMARK  108  A    between atoms: _266  and  _267
REMARK  109  A    between atoms: _266  and  _269
REMARK  110  A    between atoms: _269  and  _270
REMARK  111  A    between atoms: _275  and  _277
REMARK  112  A    between atoms: _277  and  _278
REMARK  113  A    between atoms: _277  and  _280
REMARK  114  A    between atoms: _280  and  _281
REMARK  115  A    between atoms: _281  and  _282
REMARK  116  A    between atoms: _282  and  _283
REMARK  117  A    between atoms: _292  and  _294
REMARK  118  A    between atoms: _294  and  _295
REMARK  119  A    between atoms: _294  and  _297
REMARK  120  A    between atoms: _297  and  _298
REMARK  121  A    between atoms: _301  and  _303
REMARK  122  A    between atoms: _303  and  _304
REMARK  123  A    between atoms: _303  and  _306
REMARK  124  A    between atoms: _306  and  _307
REMARK  125  A    between atoms: _310  and  _312
REMARK  126  A    between atoms: _312  and  _313
REMARK  127  A    between atoms: _312  and  _315
REMARK  128  A    between atoms: _315  and  _316
REMARK  129  A    between atoms: _319  and  _321
REMARK  130  A    between atoms: _321  and  _322
REMARK  131  A    between atoms: _321  and  _324
REMARK  132  A    between atoms: _324  and  _325
REMARK  133  A    between atoms: _328  and  _330
REMARK  134  A    between atoms: _330  and  _331
REMARK  135  A    between atoms: _333  and  _335
REMARK  136  A    between atoms: _335  and  _336
REMARK  137  A    between atoms: _339  and  _341
REMARK  138  A    between atoms: _341  and  _342
REMARK  139  A    between atoms: _341  and  _344
REMARK  140  A    between atoms: _344  and  _345
REMARK  141  A    between atoms: _348  and  _350
REMARK  142  A    between atoms: _350  and  _351
REMARK  143  A    between atoms: _350  and  _353
REMARK  144  A    between atoms: _353  and  _354
REMARK  145  A    between atoms: _357  and  _359
REMARK  146  A    between atoms: _359  and  _360
REMARK  147  A    between atoms: _359  and  _362
REMARK  148  A    between atoms: _362  and  _363
REMARK  149  A    between atoms: _366  and  _368
REMARK  150  A    between atoms: _368  and  _369
REMARK  151  A    between atoms: _368  and  _371
REMARK  152  A    between atoms: _374  and  _376
REMARK  153  A    between atoms: _376  and  _377
REMARK  154  A    between atoms: _376  and  _379
REMARK  155  A    between atoms: _379  and  _380
REMARK  156  A    between atoms: _380  and  _381
REMARK  157  A    between atoms: _381  and  _382
REMARK  158  A    between atoms: _382  and  _383
REMARK  159  A    between atoms: _387  and  _389
REMARK  160  A    between atoms: _389  and  _390
REMARK  161  A    between atoms: _389  and  _392
REMARK  162  A    between atoms: _392  and  _393
REMARK  163  A    between atoms: _393  and  _394
REMARK  164  A    between atoms: _396  and  _398
REMARK  165  A    between atoms: _398  and  _399
REMARK  166  A    between atoms: _398  and  _401
REMARK  167  A    between atoms: _401  and  _402
REMARK  168  A    between atoms: _405  and  _407
REMARK  169  A    between atoms: _407  and  _408
REMARK  170  A    between atoms: _410  and  _412
REMARK  171  A    between atoms: _412  and  _413
REMARK  172  A    between atoms: _415  and  _417
REMARK  173  A    between atoms: _417  and  _418
REMARK  174  A    between atoms: _417  and  _420
REMARK  175  A    between atoms: _420  and  _421
REMARK  176  A    between atoms: _424  and  _426
REMARK  177  A    between atoms: _426  and  _427
REMARK  178  A    between atoms: _429  and  _431
REMARK  179  A    between atoms: _431  and  _432
REMARK  180  A    between atoms: _434  and  _436
REMARK  181  A    between atoms: _436  and  _437
REMARK  182  A    between atoms: _436  and  _439
REMARK  183  A    between atoms: _439  and  _440
REMARK  184  A    between atoms: _446  and  _448
REMARK  185  A    between atoms: _448  and  _449
REMARK  186  A    between atoms: _448  and  _451
REMARK  187  A    between atoms: _451  and  _452
REMARK  188  A    between atoms: _455  and  _457
REMARK  189  A    between atoms: _457  and  _458
REMARK  190  A    between atoms: _457  and  _460
REMARK  191  A    between atoms: _460  and  _461
REMARK  192  A    between atoms: _464  and  _466
REMARK  193  A    between atoms: _466  and  _467
REMARK  194  A    between atoms: _466  and  _469
REMARK  195  A    between atoms: _469  and  _470
REMARK  196  A    between atoms: _474  and  _475
REMARK  197  A    between atoms: _480  and  _482
REMARK  198  A    between atoms: _482  and  _483
REMARK  199  A    between atoms: _482  and  _485
REMARK  200  A    between atoms: _488  and  _490
REMARK  201  A    between atoms: _490  and  _491
REMARK  202  A    between atoms: _490  and  _493
REMARK  203  A    between atoms: _493  and  _494
REMARK  204  A    between atoms: _499  and  _501
REMARK  205  A    between atoms: _501  and  _502
REMARK  206  A    between atoms: _501  and  _504
REMARK  207  A    between atoms: _504  and  _505
REMARK  208  A    between atoms: _508  and  _510
REMARK  209  A    between atoms: _510  and  _511
REMARK  210  A    between atoms: _510  and  _513
REMARK  211  A    between atoms: _513  and  _514
REMARK  212  A    between atoms: _517  and  _519
REMARK  213  A    between atoms: _519  and  _520
REMARK  214  A    between atoms: _522  and  _524
REMARK  215  A    between atoms: _524  and  _525
REMARK  216  A    between atoms: _524  and  _527
REMARK  217  A    between atoms: _527  and  _528
REMARK  218  A    between atoms: _528  and  _529
REMARK  219  A    between atoms: _529  and  _530
REMARK  220  A    between atoms: _539  and  _541
REMARK  221  A    between atoms: _541  and  _542
REMARK  222  A    between atoms: _541  and  _544
REMARK  223  A    between atoms: _544  and  _545
REMARK                            x       y       z     vdW  Elec       q    Type
REMARK                         _______ _______ _______ _____ _____    ______ ____
ROOT
ATOM      1  O   HOH     1      30.586  21.788  10.991  0.00  0.00    +0.000 OA
ENDROOT
TORSDOF 0
REMARK  Name = ../refined-set-2016/2qi0/2qi0_pocket.pdb
REMARK  223 active torsions:
REMARK  status: ('A' for Active; 'I' for Inactive)
REMARK    1  A    between atoms: _1  and  _3
REMARK    2  A    between atoms: _3  and  _4
REMARK    3  A    between atoms: _3  and  _6
REMARK    4  A    between atoms: _6  and  _7
REMARK    5  A    between atoms: _7  and  _8
REMARK    6  A    between atoms: _8  and  _9
REMARK    7  A    between atoms: _18  and  _20
REMARK    8  A    between atoms: _20  and  _21
REMARK    9  A    between atoms: _20  and  _23
REMARK   10  A    between atoms: _23  and  _24
REMARK   11  A    between atoms: _27  and  _29
REMARK   12  A    between atoms: _29  and  _30
REMARK   13  A    between atoms: _29  and  _32
REMARK   14  A    between atoms: _32  and  _33
REMARK   15  A    between atoms: _36  and  _38
REMARK   16  A    between atoms: _38  and  _39
REMARK   17  A    between atoms: _38  and  _41
REMARK   18  A    between atoms: _41  and  _42
REMARK   19  A    between atoms: _45  and  _47
REMARK   20  A    between atoms: _47  and  _48
REMARK   21  A    between atoms: _47  and  _50
REMARK   22  A    between atoms: _50  and  _51
REMARK   23  A    between atoms: _54  and  _56
REMARK   24  A    between atoms: _56  and  _57
REMARK   25  A    between atoms: _59  and  _61
REMARK   26  A    between atoms: _61  and  _62
REMARK   27  A    between atoms: _65  and  _67
REMARK   28  A    between atoms: _67  and  _68
REMARK   29  A    between atoms: _67  and  _70
REMARK   30  A    between atoms: _70  and  _71
REMARK   31  A    between atoms: _74  and  _76
REMARK   32  A    between atoms: _76  and  _77
REMARK   33  A    between atoms: _76  and  _79
REMARK   34  A    between atoms: _79  and  _80
REMARK   35  A    between atoms: _83  and  _85
REMARK   36  A    between atoms: _85  and  _86
REMARK   37  A    between atoms: _85  and  _88
REMARK   38  A    between atoms: _88  and  _89
REMARK   39  A    between atoms: _92  and  _94
REMARK   40  A    between atoms: _94  and  _95
REMARK   41  A    between atoms: _94  and  _97
REMARK   42  A    between atoms: _100  and  _102
REMARK   43  A    between atoms: _102  and  _103
REMARK   44  A    between atoms: _102  and  _105
REMARK   45  A    between atoms: _105  and  _106
REMARK   46  A    between atoms: _109  and  _111
REMARK   47  A    between atoms: _111  and  _112
REMARK   48  A    between atoms: _111  and  _114
REMARK   49  A    between atoms: _114  and  _115
REMARK   50  A    between atoms: _115  and  _116
REMARK   51  A    between atoms: _118  and  _120
REMARK   52  A    between atoms: _120  and  _121
REMARK   53  A    between atoms: _120  and  _123
REMARK   54  A    between atoms: _123  and  _124
REMARK   55  A    between atoms: _127  and  _129
REMARK   56  A    between atoms: _129  and  _130
REMARK   57  A    between atoms: _132  and  _134
REMARK   58  A    between atoms: _134  and  _135
REMARK   59  A    between atoms: _137  and  _139
REMARK   60  A    between atoms: _139  and  _140
REMARK   61  A    between atoms: _139  and  _142
REMARK   62  A    between atoms: _142  and  _143
REMARK   63  A    between atoms: _146  and  _148
REMARK   64  A    between atoms: _148  and  _149
REMARK   65  A    between atoms: _151  and  _153
REMARK   66  A    between atoms: _153  and  _154
REMARK   67  A    between atoms: _156  and  _158
REMARK   68  A    between atoms: _158  and  _159
REMARK   69  A    between atoms: _158  and  _161
REMARK   70  A    between atoms: _161  and  _162
REMARK   71  A    between atoms: _165  and  _167
REMARK   72  A    between atoms: _167  and  _168
REMARK   73  A    between atoms: _167  and  _170
REMARK   74  A    between atoms: _173  and  _175
REMARK   75  A    between atoms: _175  and  _176
REMARK   76  A    between atoms: _175  and  _178
REMARK   77  A    between atoms: _178  and  _179
REMARK   78  A    between atoms: _183  and  _184
REMARK   79  A    between atoms: _189  and  _191
REMARK   80  A    between atoms: _191  and  _192
REMARK   81  A    between atoms: _191  and  _194
REMARK   82  A    between atoms: _194  and  _195
REMARK   83  A    between atoms: _199  and  _200
REMARK   84  A    between atoms: _205  and  _207
REMARK   85  A    between atoms: _207  and  _208
REMARK   86  A    between atoms: _207  and  _210
REMARK   87  A    between atoms: _213  and  _215
REMARK   88  A    between atoms: _215  and  _216
REMARK   89  A    between atoms: _215  and  _218
REMARK   90  A    between atoms: _218  and  _219
REMARK   91  A    between atoms: _224  and  _226
REMARK   92  A    between atoms: _226  and  _227
REMARK   93  A    between atoms: _226  and  _229
REMARK   94  A    between atoms: _229  and  _230
REMARK   95  A    between atoms: _233  and  _235
REMARK   96  A    between atoms: _235  and  _236
REMARK   97  A    between atoms: _235  and  _238
REMARK   98  A    between atoms: _238  and  _239
REMARK   99  A    between atoms: _242  and  _244
REMARK  100  A    between atoms: _244  and  _245
REMARK  101  A    between atoms: _247  and  _249
REMARK  102  A    between atoms: _249  and  _250
REMARK  103  A    between atoms: _249  and  _252
REMARK  104  A    between atoms: _252  and  _253
REMARK  105  A    between atoms: _253  and  _254
REMARK  106  A    between atoms: _254  and  _255
REMARK  107  A    between atoms: _264  and  _266
REMARK  108  A    between atoms: _266  and  _267
REMARK  109  A    between atoms: _266  and  _269
REMARK  110  A    between atoms: _269  and  _270
REMARK  111  A    between atoms: _275  and  _277
REMARK  112  A    between atoms: _277  and  _278
REMARK  113  A    between atoms: _277  and  _280
REMARK  114  A    between atoms: _280  and  _281
REMARK  115  A    between atoms: _281  and  _282
REMARK  116  A    between atoms: _282  and  _283
REMARK  117  A    between atoms: _292  and  _294
REMARK  118  A    between atoms: _294  and  _295
REMARK  119  A    between atoms: _294  and  _297
REMARK  120  A    between atoms: _297  and  _298
REMARK  121  A    between atoms: _301  and  _303
REMARK  122  A    between atoms: _303  and  _304
REMARK  123  A    between atoms: _303  and  _306
REMARK  124  A    between atoms: _306  and  _307
REMARK  125  A    between atoms: _310  and  _312
REMARK  126  A    between atoms: _312  and  _313
REMARK  127  A    between atoms: _312  and  _315
REMARK  128  A    between atoms: _315  and  _316
REMARK  129  A    between atoms: _319  and  _321
REMARK  130  A    between atoms: _321  and  _322
REMARK  131  A    between atoms: _321  and  _324
REMARK  132  A    between atoms: _324  and  _325
REMARK  133  A    between atoms: _328  and  _330
REMARK  134  A    between atoms: _330  and  _331
REMARK  135  A    between atoms: _333  and  _335
REMARK  136  A    between atoms: _335  and  _336
REMARK  137  A    between atoms: _339  and  _341
REMARK  138  A    between atoms: _341  and  _342
REMARK  139  A    between atoms: _341  and  _344
REMARK  140  A    between atoms: _344  and  _345
REMARK  141  A    between atoms: _348  and  _350
REMARK  142  A    between atoms: _350  and  _351
REMARK  143  A    between atoms: _350  and  _353
REMARK  144  A    between atoms: _353  and  _354
REMARK  145  A    between atoms: _357  and  _359
REMARK  146  A    between atoms: _359  and  _360
REMARK  147  A    between atoms: _359  and  _362
REMARK  148  A    between atoms: _362  and  _363
REMARK  149  A    between atoms: _366  and  _368
REMARK  150  A    between atoms: _368  and  _369
REMARK  151  A    between atoms: _368  and  _371
REMARK  152  A    between atoms: _374  and  _376
REMARK  153  A    between atoms: _376  and  _377
REMARK  154  A    between atoms: _376  and  _379
REMARK  155  A    between atoms: _379  and  _380
REMARK  156  A    between atoms: _380  and  _381
REMARK  157  A    between atoms: _381  and  _382
REMARK  158  A    between atoms: _382  and  _383
REMARK  159  A    between atoms: _387  and  _389
REMARK  160  A    between atoms: _389  and  _390
REMARK  161  A    between atoms: _389  and  _392
REMARK  162  A    between atoms: _392  and  _393
REMARK  163  A    between atoms: _393  and  _394
REMARK  164  A    between atoms: _396  and  _398
REMARK  165  A    between atoms: _398  and  _399
REMARK  166  A    between atoms: _398  and  _401
REMARK  167  A    between atoms: _401  and  _402
REMARK  168  A    between atoms: _405  and  _407
REMARK  169  A    between atoms: _407  and  _408
REMARK  170  A    between atoms: _410  and  _412
REMARK  171  A    between atoms: _412  and  _413
REMARK  172  A    between atoms: _415  and  _417
REMARK  173  A    between atoms: _417  and  _418
REMARK  174  A    between atoms: _417  and  _420
REMARK  175  A    between atoms: _420  and  _421
REMARK  176  A    between atoms: _424  and  _426
REMARK  177  A    between atoms: _426  and  _427
REMARK  178  A    between atoms: _429  and  _431
REMARK  179  A    between atoms: _431  and  _432
REMARK  180  A    between atoms: _434  and  _436
REMARK  181  A    between atoms: _436  and  _437
REMARK  182  A    between atoms: _436  and  _439
REMARK  183  A    between atoms: _439  and  _440
REMARK  184  A    between atoms: _446  and  _448
REMARK  185  A    between atoms: _448  and  _449
REMARK  186  A    between atoms: _448  and  _451
REMARK  187  A    between atoms: _451  and  _452
REMARK  188  A    between atoms: _455  and  _457
REMARK  189  A    between atoms: _457  and  _458
REMARK  190  A    between atoms: _457  and  _460
REMARK  191  A    between atoms: _460  and  _461
REMARK  192  A    between atoms: _464  and  _466
REMARK  193  A    between atoms: _466  and  _467
REMARK  194  A    between atoms: _466  and  _469
REMARK  195  A    between atoms: _469  and  _470
REMARK  196  A    between atoms: _474  and  _475
REMARK  197  A    between atoms: _480  and  _482
REMARK  198  A    between atoms: _482  and  _483
REMARK  199  A    between atoms: _482  and  _485
REMARK  200  A    between atoms: _488  and  _490
REMARK  201  A    between atoms: _490  and  _491
REMARK  202  A    between atoms: _490  and  _493
REMARK  203  A    between atoms: _493  and  _494
REMARK  204  A    between atoms: _499  and  _501
REMARK  205  A    between atoms: _501  and  _502
REMARK  206  A    between atoms: _501  and  _504
REMARK  207  A    between atoms: _504  and  _505
REMARK  208  A    between atoms: _508  and  _510
REMARK  209  A    between atoms: _510  and  _511
REMARK  210  A    between atoms: _510  and  _513
REMARK  211  A    between atoms: _513  and  _514
REMARK  212  A    between atoms: _517  and  _519
REMARK  213  A    between atoms: _519  and  _520
REMARK  214  A    between atoms: _522  and  _524
REMARK  215  A    between atoms: _524  and  _525
REMARK  216  A    between atoms: _524  and  _527
REMARK  217  A    between atoms: _527  and  _528
REMARK  218  A    between atoms: _528  and  _529
REMARK  219  A    between atoms: _529  and  _530
REMARK  220  A    between atoms: _539  and  _541
REMARK  221  A    between atoms: _541  and  _542
REMARK  222  A    between atoms: _541  and  _544
REMARK  223  A    between atoms: _544  and  _545
REMARK                            x       y       z     vdW  Elec       q    Type
REMARK                         _______ _______ _______ _____ _____    ______ ____
ROOT
ATOM      1  O   HOH     1      23.535  25.506   6.271  0.00  0.00    +0.000 OA
ENDROOT
TORSDOF 0
REMARK  Name = ../refined-set-2016/2qi0/2qi0_pocket.pdb
REMARK  223 active torsions:
REMARK  status: ('A' for Active; 'I' for Inactive)
REMARK    1  A    between atoms: _1  and  _3
REMARK    2  A    between atoms: _3  and  _4
REMARK    3  A    between atoms: _3  and  _6
REMARK    4  A    between atoms: _6  and  _7
REMARK    5  A    between atoms: _7  and  _8
REMARK    6  A    between atoms: _8  and  _9
REMARK    7  A    between atoms: _18  and  _20
REMARK    8  A    between atoms: _20  and  _21
REMARK    9  A    between atoms: _20  and  _23
REMARK   10  A    between atoms: _23  and  _24
REMARK   11  A    between atoms: _27  and  _29
REMARK   12  A    between atoms: _29  and  _30
REMARK   13  A    between atoms: _29  and  _32
REMARK   14  A    between atoms: _32  and  _33
REMARK   15  A    between atoms: _36  and  _38
REMARK   16  A    between atoms: _38  and  _39
REMARK   17  A    between atoms: _38  and  _41
REMARK   18  A    between atoms: _41  and  _42
REMARK   19  A    between atoms: _45  and  _47
REMARK   20  A    between atoms: _47  and  _48
REMARK   21  A    between atoms: _47  and  _50
REMARK   22  A    between atoms: _50  and  _51
REMARK   23  A    between atoms: _54  and  _56
REMARK   24  A    between atoms: _56  and  _57
REMARK   25  A    between atoms: _59  and  _61
REMARK   26  A    between atoms: _61  and  _62
REMARK   27  A    between atoms: _65  and  _67
REMARK   28  A    between atoms: _67  and  _68
REMARK   29  A    between atoms: _67  and  _70
REMARK   30  A    between atoms: _70  and  _71
REMARK   31  A    between atoms: _74  and  _76
REMARK   32  A    between atoms: _76  and  _77
REMARK   33  A    between atoms: _76  and  _79
REMARK   34  A    between atoms: _79  and  _80
REMARK   35  A    between atoms: _83  and  _85
REMARK   36  A    between atoms: _85  and  _86
REMARK   37  A    between atoms: _85  and  _88
REMARK   38  A    between atoms: _88  and  _89
REMARK   39  A    between atoms: _92  and  _94
REMARK   40  A    between atoms: _94  and  _95
REMARK   41  A    between atoms: _94  and  _97
REMARK   42  A    between atoms: _100  and  _102
REMARK   43  A    between atoms: _102  and  _103
REMARK   44  A    between atoms: _102  and  _105
REMARK   45  A    between atoms: _105  and  _106
REMARK   46  A    between atoms: _109  and  _111
REMARK   47  A    between atoms: _111  and  _112
REMARK   48  A    between atoms: _111  and  _114
REMARK   49  A    between atoms: _114  and  _115
REMARK   50  A    between atoms: _115  and  _116
REMARK   51  A    between atoms: _118  and  _120
REMARK   52  A    between atoms: _120  and  _121
REMARK   53  A    between atoms: _120  and  _123
REMARK   54  A    between atoms: _123  and  _124
REMARK   55  A    between atoms: _127  and  _129
REMARK   56  A    between atoms: _129  and  _130
REMARK   57  A    between atoms: _132  and  _134
REMARK   58  A    between atoms: _134  and  _135
REMARK   59  A    between atoms: _137  and  _139
REMARK   60  A    between atoms: _139  and  _140
REMARK   61  A    between atoms: _139  and  _142
REMARK   62  A    between atoms: _142  and  _143
REMARK   63  A    between atoms: _146  and  _148
REMARK   64  A    between atoms: _148  and  _149
REMARK   65  A    between atoms: _151  and  _153
REMARK   66  A    between atoms: _153  and  _154
REMARK   67  A    between atoms: _156  and  _158
REMARK   68  A    between atoms: _158  and  _159
REMARK   69  A    between atoms: _158  and  _161
REMARK   70  A    between atoms: _161  and  _162
REMARK   71  A    between atoms: _165  and  _167
REMARK   72  A    between atoms: _167  and  _168
REMARK   73  A    between atoms: _167  and  _170
REMARK   74  A    between atoms: _173  and  _175
REMARK   75  A    between atoms: _175  and  _176
REMARK   76  A    between atoms: _175  and  _178
REMARK   77  A    between atoms: _178  and  _179
REMARK   78  A    between atoms: _183  and  _184
REMARK   79  A    between atoms: _189  and  _191
REMARK   80  A    between atoms: _191  and  _192
REMARK   81  A    between atoms: _191  and  _194
REMARK   82  A    between atoms: _194  and  _195
REMARK   83  A    between atoms: _199  and  _200
REMARK   84  A    between atoms: _205  and  _207
REMARK   85  A    between atoms: _207  and  _208
REMARK   86  A    between atoms: _207  and  _210
REMARK   87  A    between atoms: _213  and  _215
REMARK   88  A    between atoms: _215  and  _216
REMARK   89  A    between atoms: _215  and  _218
REMARK   90  A    between atoms: _218  and  _219
REMARK   91  A    between atoms: _224  and  _226
REMARK   92  A    between atoms: _226  and  _227
REMARK   93  A    between atoms: _226  and  _229
REMARK   94  A    between atoms: _229  and  _230
REMARK   95  A    between atoms: _233  and  _235
REMARK   96  A    between atoms: _235  and  _236
REMARK   97  A    between atoms: _235  and  _238
REMARK   98  A    between atoms: _238  and  _239
REMARK   99  A    between atoms: _242  and  _244
REMARK  100  A    between atoms: _244  and  _245
REMARK  101  A    between atoms: _247  and  _249
REMARK  102  A    between atoms: _249  and  _250
REMARK  103  A    between atoms: _249  and  _252
REMARK  104  A    between atoms: _252  and  _253
REMARK  105  A    between atoms: _253  and  _254
REMARK  106  A    between atoms: _254  and  _255
REMARK  107  A    between atoms: _264  and  _266
REMARK  108  A    between atoms: _266  and  _267
REMARK  109  A    between atoms: _266  and  _269
REMARK  110  A    between atoms: _269  and  _270
REMARK  111  A    between atoms: _275  and  _277
REMARK  112  A    between atoms: _277  and  _278
REMARK  113  A    between atoms: _277  and  _280
REMARK  114  A    between atoms: _280  and  _281
REMARK  115  A    between atoms: _281  and  _282
REMARK  116  A    between atoms: _282  and  _283
REMARK  117  A    between atoms: _292  and  _294
REMARK  118  A    between atoms: _294  and  _295
REMARK  119  A    between atoms: _294  and  _297
REMARK  120  A    between atoms: _297  and  _298
REMARK  121  A    between atoms: _301  and  _303
REMARK  122  A    between atoms: _303  and  _304
REMARK  123  A    between atoms: _303  and  _306
REMARK  124  A    between atoms: _306  and  _307
REMARK  125  A    between atoms: _310  and  _312
REMARK  126  A    between atoms: _312  and  _313
REMARK  127  A    between atoms: _312  and  _315
REMARK  128  A    between atoms: _315  and  _316
REMARK  129  A    between atoms: _319  and  _321
REMARK  130  A    between atoms: _321  and  _322
REMARK  131  A    between atoms: _321  and  _324
REMARK  132  A    between atoms: _324  and  _325
REMARK  133  A    between atoms: _328  and  _330
REMARK  134  A    between atoms: _330  and  _331
REMARK  135  A    between atoms: _333  and  _335
REMARK  136  A    between atoms: _335  and  _336
REMARK  137  A    between atoms: _339  and  _341
REMARK  138  A    between atoms: _341  and  _342
REMARK  139  A    between atoms: _341  and  _344
REMARK  140  A    between atoms: _344  and  _345
REMARK  141  A    between atoms: _348  and  _350
REMARK  142  A    between atoms: _350  and  _351
REMARK  143  A    between atoms: _350  and  _353
REMARK  144  A    between atoms: _353  and  _354
REMARK  145  A    between atoms: _357  and  _359
REMARK  146  A    between atoms: _359  and  _360
REMARK  147  A    between atoms: _359  and  _362
REMARK  148  A    between atoms: _362  and  _363
REMARK  149  A    between atoms: _366  and  _368
REMARK  150  A    between atoms: _368  and  _369
REMARK  151  A    between atoms: _368  and  _371
REMARK  152  A    between atoms: _374  and  _376
REMARK  153  A    between atoms: _376  and  _377
REMARK  154  A    between atoms: _376  and  _379
REMARK  155  A    between atoms: _379  and  _380
REMARK  156  A    between atoms: _380  and  _381
REMARK  157  A    between atoms: _381  and  _382
REMARK  158  A    between atoms: _382  and  _383
REMARK  159  A    between atoms: _387  and  _389
REMARK  160  A    between atoms: _389  and  _390
REMARK  161  A    between atoms: _389  and  _392
REMARK  162  A    between atoms: _392  and  _393
REMARK  163  A    between atoms: _393  and  _394
REMARK  164  A    between atoms: _396  and  _398
REMARK  165  A    between atoms: _398  and  _399
REMARK  166  A    between atoms: _398  and  _401
REMARK  167  A    between atoms: _401  and  _402
REMARK  168  A    between atoms: _405  and  _407
REMARK  169  A    between atoms: _407  and  _408
REMARK  170  A    between atoms: _410  and  _412
REMARK  171  A    between atoms: _412  and  _413
REMARK  172  A    between atoms: _415  and  _417
REMARK  173  A    between atoms: _417  and  _418
REMARK  174  A    between atoms: _417  and  _420
REMARK  175  A    between atoms: _420  and  _421
REMARK  176  A    between atoms: _424  and  _426
REMARK  177  A    between atoms: _426  and  _427
REMARK  178  A    between atoms: _429  and  _431
REMARK  179  A    between atoms: _431  and  _432
REMARK  180  A    between atoms: _434  and  _436
REMARK  181  A    between atoms: _436  and  _437
REMARK  182  A    between atoms: _436  and  _439
REMARK  183  A    between atoms: _439  and  _440
REMARK  184  A    between atoms: _446  and  _448
REMARK  185  A    between atoms: _448  and  _449
REMARK  186  A    between atoms: _448  and  _451
REMARK  187  A    between atoms: _451  and  _452
REMARK  188  A    between atoms: _455  and  _457
REMARK  189  A    between atoms: _457  and  _458
REMARK  190  A    between atoms: _457  and  _460
REMARK  191  A    between atoms: _460  and  _461
REMARK  192  A    between atoms: _464  and  _466
REMARK  193  A    between atoms: _466  and  _467
REMARK  194  A    between atoms: _466  and  _469
REMARK  195  A    between atoms: _469  and  _470
REMARK  196  A    between atoms: _474  and  _475
REMARK  197  A    between atoms: _480  and  _482
REMARK  198  A    between atoms: _482  and  _483
REMARK  199  A    between atoms: _482  and  _485
REMARK  200  A    between atoms: _488  and  _490
REMARK  201  A    between atoms: _490  and  _491
REMARK  202  A    between atoms: _490  and  _493
REMARK  203  A    between atoms: _493  and  _494
REMARK  204  A    between atoms: _499  and  _501
REMARK  205  A    between atoms: _501  and  _502
REMARK  206  A    between atoms: _501  and  _504
REMARK  207  A    between atoms: _504  and  _505
REMARK  208  A    between atoms: _508  and  _510
REMARK  209  A    between atoms: _510  and  _511
REMARK  210  A    between atoms: _510  and  _513
REMARK  211  A    between atoms: _513  and  _514
REMARK  212  A    between atoms: _517  and  _519
REMARK  213  A    between atoms: _519  and  _520
REMARK  214  A    between atoms: _522  and  _524
REMARK  215  A    between atoms: _524  and  _525
REMARK  216  A    between atoms: _524  and  _527
REMARK  217  A    between atoms: _527  and  _528
REMARK  218  A    between atoms: _528  and  _529
REMARK  219  A    between atoms: _529  and  _530
REMARK  220  A    between atoms: _539  and  _541
REMARK  221  A    between atoms: _541  and  _542
REMARK  222  A    between atoms: _541  and  _544
REMARK  223  A    between atoms: _544  and  _545
REMARK                            x       y       z     vdW  Elec       q    Type
REMARK                         _______ _______ _______ _____ _____    ______ ____
ROOT
ATOM      1  O   HOH     1      26.493  18.891  13.262  0.00  0.00    +0.000 OA
ENDROOT
TORSDOF 0
REMARK  Name = ../refined-set-2016/2qi0/2qi0_pocket.pdb
REMARK  223 active torsions:
REMARK  status: ('A' for Active; 'I' for Inactive)
REMARK    1  A    between atoms: _1  and  _3
REMARK    2  A    between atoms: _3  and  _4
REMARK    3  A    between atoms: _3  and  _6
REMARK    4  A    between atoms: _6  and  _7
REMARK    5  A    between atoms: _7  and  _8
REMARK    6  A    between atoms: _8  and  _9
REMARK    7  A    between atoms: _18  and  _20
REMARK    8  A    between atoms: _20  and  _21
REMARK    9  A    between atoms: _20  and  _23
REMARK   10  A    between atoms: _23  and  _24
REMARK   11  A    between atoms: _27  and  _29
REMARK   12  A    between atoms: _29  and  _30
REMARK   13  A    between atoms: _29  and  _32
REMARK   14  A    between atoms: _32  and  _33
REMARK   15  A    between atoms: _36  and  _38
REMARK   16  A    between atoms: _38  and  _39
REMARK   17  A    between atoms: _38  and  _41
REMARK   18  A    between atoms: _41  and  _42
REMARK   19  A    between atoms: _45  and  _47
REMARK   20  A    between atoms: _47  and  _48
REMARK   21  A    between atoms: _47  and  _50
REMARK   22  A    between atoms: _50  and  _51
REMARK   23  A    between atoms: _54  and  _56
REMARK   24  A    between atoms: _56  and  _57
REMARK   25  A    between atoms: _59  and  _61
REMARK   26  A    between atoms: _61  and  _62
REMARK   27  A    between atoms: _65  and  _67
REMARK   28  A    between atoms: _67  and  _68
REMARK   29  A    between atoms: _67  and  _70
REMARK   30  A    between atoms: _70  and  _71
REMARK   31  A    between atoms: _74  and  _76
REMARK   32  A    between atoms: _76  and  _77
REMARK   33  A    between atoms: _76  and  _79
REMARK   34  A    between atoms: _79  and  _80
REMARK   35  A    between atoms: _83  and  _85
REMARK   36  A    between atoms: _85  and  _86
REMARK   37  A    between atoms: _85  and  _88
REMARK   38  A    between atoms: _88  and  _89
REMARK   39  A    between atoms: _92  and  _94
REMARK   40  A    between atoms: _94  and  _95
REMARK   41  A    between atoms: _94  and  _97
REMARK   42  A    between atoms: _100  and  _102
REMARK   43  A    between atoms: _102  and  _103
REMARK   44  A    between atoms: _102  and  _105
REMARK   45  A    between atoms: _105  and  _106
REMARK   46  A    between atoms: _109  and  _111
REMARK   47  A    between atoms: _111  and  _112
REMARK   48  A    between atoms: _111  and  _114
REMARK   49  A    between atoms: _114  and  _115
REMARK   50  A    between atoms: _115  and  _116
REMARK   51  A    between atoms: _118  and  _120
REMARK   52  A    between atoms: _120  and  _121
REMARK   53  A    between atoms: _120  and  _123
REMARK   54  A    between atoms: _123  and  _124
REMARK   55  A    between atoms: _127  and  _129
REMARK   56  A    between atoms: _129  and  _130
REMARK   57  A    between atoms: _132  and  _134
REMARK   58  A    between atoms: _134  and  _135
REMARK   59  A    between atoms: _137  and  _139
REMARK   60  A    between atoms: _139  and  _140
REMARK   61  A    between atoms: _139  and  _142
REMARK   62  A    between atoms: _142  and  _143
REMARK   63  A    between atoms: _146  and  _148
REMARK   64  A    between atoms: _148  and  _149
REMARK   65  A    between atoms: _151  and  _153
REMARK   66  A    between atoms: _153  and  _154
REMARK   67  A    between atoms: _156  and  _158
REMARK   68  A    between atoms: _158  and  _159
REMARK   69  A    between atoms: _158  and  _161
REMARK   70  A    between atoms: _161  and  _162
REMARK   71  A    between atoms: _165  and  _167
REMARK   72  A    between atoms: _167  and  _168
REMARK   73  A    between atoms: _167  and  _170
REMARK   74  A    between atoms: _173  and  _175
REMARK   75  A    between atoms: _175  and  _176
REMARK   76  A    between atoms: _175  and  _178
REMARK   77  A    between atoms: _178  and  _179
REMARK   78  A    between atoms: _183  and  _184
REMARK   79  A    between atoms: _189  and  _191
REMARK   80  A    between atoms: _191  and  _192
REMARK   81  A    between atoms: _191  and  _194
REMARK   82  A    between atoms: _194  and  _195
REMARK   83  A    between atoms: _199  and  _200
REMARK   84  A    between atoms: _205  and  _207
REMARK   85  A    between atoms: _207  and  _208
REMARK   86  A    between atoms: _207  and  _210
REMARK   87  A    between atoms: _213  and  _215
REMARK   88  A    between atoms: _215  and  _216
REMARK   89  A    between atoms: _215  and  _218
REMARK   90  A    between atoms: _218  and  _219
REMARK   91  A    between atoms: _224  and  _226
REMARK   92  A    between atoms: _226  and  _227
REMARK   93  A    between atoms: _226  and  _229
REMARK   94  A    between atoms: _229  and  _230
REMARK   95  A    between atoms: _233  and  _235
REMARK   96  A    between atoms: _235  and  _236
REMARK   97  A    between atoms: _235  and  _238
REMARK   98  A    between atoms: _238  and  _239
REMARK   99  A    between atoms: _242  and  _244
REMARK  100  A    between atoms: _244  and  _245
REMARK  101  A    between atoms: _247  and  _249
REMARK  102  A    between atoms: _249  and  _250
REMARK  103  A    between atoms: _249  and  _252
REMARK  104  A    between atoms: _252  and  _253
REMARK  105  A    between atoms: _253  and  _254
REMARK  106  A    between atoms: _254  and  _255
REMARK  107  A    between atoms: _264  and  _266
REMARK  108  A    between atoms: _266  and  _267
REMARK  109  A    between atoms: _266  and  _269
REMARK  110  A    between atoms: _269  and  _270
REMARK  111  A    between atoms: _275  and  _277
REMARK  112  A    between atoms: _277  and  _278
REMARK  113  A    between atoms: _277  and  _280
REMARK  114  A    between atoms: _280  and  _281
REMARK  115  A    between atoms: _281  and  _282
REMARK  116  A    between atoms: _282  and  _283
REMARK  117  A    between atoms: _292  and  _294
REMARK  118  A    between atoms: _294  and  _295
REMARK  119  A    between atoms: _294  and  _297
REMARK  120  A    between atoms: _297  and  _298
REMARK  121  A    between atoms: _301  and  _303
REMARK  122  A    between atoms: _303  and  _304
REMARK  123  A    between atoms: _303  and  _306
REMARK  124  A    between atoms: _306  and  _307
REMARK  125  A    between atoms: _310  and  _312
REMARK  126  A    between atoms: _312  and  _313
REMARK  127  A    between atoms: _312  and  _315
REMARK  128  A    between atoms: _315  and  _316
REMARK  129  A    between atoms: _319  and  _321
REMARK  130  A    between atoms: _321  and  _322
REMARK  131  A    between atoms: _321  and  _324
REMARK  132  A    between atoms: _324  and  _325
REMARK  133  A    between atoms: _328  and  _330
REMARK  134  A    between atoms: _330  and  _331
REMARK  135  A    between atoms: _333  and  _335
REMARK  136  A    between atoms: _335  and  _336
REMARK  137  A    between atoms: _339  and  _341
REMARK  138  A    between atoms: _341  and  _342
REMARK  139  A    between atoms: _341  and  _344
REMARK  140  A    between atoms: _344  and  _345
REMARK  141  A    between atoms: _348  and  _350
REMARK  142  A    between atoms: _350  and  _351
REMARK  143  A    between atoms: _350  and  _353
REMARK  144  A    between atoms: _353  and  _354
REMARK  145  A    between atoms: _357  and  _359
REMARK  146  A    between atoms: _359  and  _360
REMARK  147  A    between atoms: _359  and  _362
REMARK  148  A    between atoms: _362  and  _363
REMARK  149  A    between atoms: _366  and  _368
REMARK  150  A    between atoms: _368  and  _369
REMARK  151  A    between atoms: _368  and  _371
REMARK  152  A    between atoms: _374  and  _376
REMARK  153  A    between atoms: _376  and  _377
REMARK  154  A    between atoms: _376  and  _379
REMARK  155  A    between atoms: _379  and  _380
REMARK  156  A    between atoms: _380  and  _381
REMARK  157  A    between atoms: _381  and  _382
REMARK  158  A    between atoms: _382  and  _383
REMARK  159  A    between atoms: _387  and  _389
REMARK  160  A    between atoms: _389  and  _390
REMARK  161  A    between atoms: _389  and  _392
REMARK  162  A    between atoms: _392  and  _393
REMARK  163  A    between atoms: _393  and  _394
REMARK  164  A    between atoms: _396  and  _398
REMARK  165  A    between atoms: _398  and  _399
REMARK  166  A    between atoms: _398  and  _401
REMARK  167  A    between atoms: _401  and  _402
REMARK  168  A    between atoms: _405  and  _407
REMARK  169  A    between atoms: _407  and  _408
REMARK  170  A    between atoms: _410  and  _412
REMARK  171  A    between atoms: _412  and  _413
REMARK  172  A    between atoms: _415  and  _417
REMARK  173  A    between atoms: _417  and  _418
REMARK  174  A    between atoms: _417  and  _420
REMARK  175  A    between atoms: _420  and  _421
REMARK  176  A    between atoms: _424  and  _426
REMARK  177  A    between atoms: _426  and  _427
REMARK  178  A    between atoms: _429  and  _431
REMARK  179  A    between atoms: _431  and  _432
REMARK  180  A    between atoms: _434  and  _436
REMARK  181  A    between atoms: _436  and  _437
REMARK  182  A    between atoms: _436  and  _439
REMARK  183  A    between atoms: _439  and  _440
REMARK  184  A    between atoms: _446  and  _448
REMARK  185  A    between atoms: _448  and  _449
REMARK  186  A    between atoms: _448  and  _451
REMARK  187  A    between atoms: _451  and  _452
REMARK  188  A    between atoms: _455  and  _457
REMARK  189  A    between atoms: _457  and  _458
REMARK  190  A    between atoms: _457  and  _460
REMARK  191  A    between atoms: _460  and  _461
REMARK  192  A    between atoms: _464  and  _466
REMARK  193  A    between atoms: _466  and  _467
REMARK  194  A    between atoms: _466  and  _469
REMARK  195  A    between atoms: _469  and  _470
REMARK  196  A    between atoms: _474  and  _475
REMARK  197  A    between atoms: _480  and  _482
REMARK  198  A    between atoms: _482  and  _483
REMARK  199  A    between atoms: _482  and  _485
REMARK  200  A    between atoms: _488  and  _490
REMARK  201  A    between atoms: _490  and  _491
REMARK  202  A    between atoms: _490  and  _493
REMARK  203  A    between atoms: _493  and  _494
REMARK  204  A    between atoms: _499  and  _501
REMARK  205  A    between atoms: _501  and  _502
REMARK  206  A    between atoms: _501  and  _504
REMARK  207  A    between atoms: _504  and  _505
REMARK  208  A    between atoms: _508  and  _510
REMARK  209  A    between atoms: _510  and  _511
REMARK  210  A    between atoms: _510  and  _513
REMARK  211  A    between atoms: _513  and  _514
REMARK  212  A    between atoms: _517  and  _519
REMARK  213  A    between atoms: _519  and  _520
REMARK  214  A    between atoms: _522  and  _524
REMARK  215  A    between atoms: _524  and  _525
REMARK  216  A    between atoms: _524  and  _527
REMARK  217  A    between atoms: _527  and  _528
REMARK  218  A    between atoms: _528  and  _529
REMARK  219  A    between atoms: _529  and  _530
REMARK  220  A    between atoms: _539  and  _541
REMARK  221  A    between atoms: _541  and  _542
REMARK  222  A    between atoms: _541  and  _544
REMARK  223  A    between atoms: _544  and  _545
REMARK                            x       y       z     vdW  Elec       q    Type
REMARK                         _______ _______ _______ _____ _____    ______ ____
ROOT
ATOM      1  O   HOH     1      24.989  37.041   8.575  0.00  0.00    +0.000 OA
ENDROOT
TORSDOF 0
REMARK  Name = ../refined-set-2016/2qi0/2qi0_pocket.pdb
REMARK  223 active torsions:
REMARK  status: ('A' for Active; 'I' for Inactive)
REMARK    1  A    between atoms: _1  and  _3
REMARK    2  A    between atoms: _3  and  _4
REMARK    3  A    between atoms: _3  and  _6
REMARK    4  A    between atoms: _6  and  _7
REMARK    5  A    between atoms: _7  and  _8
REMARK    6  A    between atoms: _8  and  _9
REMARK    7  A    between atoms: _18  and  _20
REMARK    8  A    between atoms: _20  and  _21
REMARK    9  A    between atoms: _20  and  _23
REMARK   10  A    between atoms: _23  and  _24
REMARK   11  A    between atoms: _27  and  _29
REMARK   12  A    between atoms: _29  and  _30
REMARK   13  A    between atoms: _29  and  _32
REMARK   14  A    between atoms: _32  and  _33
REMARK   15  A    between atoms: _36  and  _38
REMARK   16  A    between atoms: _38  and  _39
REMARK   17  A    between atoms: _38  and  _41
REMARK   18  A    between atoms: _41  and  _42
REMARK   19  A    between atoms: _45  and  _47
REMARK   20  A    between atoms: _47  and  _48
REMARK   21  A    between atoms: _47  and  _50
REMARK   22  A    between atoms: _50  and  _51
REMARK   23  A    between atoms: _54  and  _56
REMARK   24  A    between atoms: _56  and  _57
REMARK   25  A    between atoms: _59  and  _61
REMARK   26  A    between atoms: _61  and  _62
REMARK   27  A    between atoms: _65  and  _67
REMARK   28  A    between atoms: _67  and  _68
REMARK   29  A    between atoms: _67  and  _70
REMARK   30  A    between atoms: _70  and  _71
REMARK   31  A    between atoms: _74  and  _76
REMARK   32  A    between atoms: _76  and  _77
REMARK   33  A    between atoms: _76  and  _79
REMARK   34  A    between atoms: _79  and  _80
REMARK   35  A    between atoms: _83  and  _85
REMARK   36  A    between atoms: _85  and  _86
REMARK   37  A    between atoms: _85  and  _88
REMARK   38  A    between atoms: _88  and  _89
REMARK   39  A    between atoms: _92  and  _94
REMARK   40  A    between atoms: _94  and  _95
REMARK   41  A    between atoms: _94  and  _97
REMARK   42  A    between atoms: _100  and  _102
REMARK   43  A    between atoms: _102  and  _103
REMARK   44  A    between atoms: _102  and  _105
REMARK   45  A    between atoms: _105  and  _106
REMARK   46  A    between atoms: _109  and  _111
REMARK   47  A    between atoms: _111  and  _112
REMARK   48  A    between atoms: _111  and  _114
REMARK   49  A    between atoms: _114  and  _115
REMARK   50  A    between atoms: _115  and  _116
REMARK   51  A    between atoms: _118  and  _120
REMARK   52  A    between atoms: _120  and  _121
REMARK   53  A    between atoms: _120  and  _123
REMARK   54  A    between atoms: _123  and  _124
REMARK   55  A    between atoms: _127  and  _129
REMARK   56  A    between atoms: _129  and  _130
REMARK   57  A    between atoms: _132  and  _134
REMARK   58  A    between atoms: _134  and  _135
REMARK   59  A    between atoms: _137  and  _139
REMARK   60  A    between atoms: _139  and  _140
REMARK   61  A    between atoms: _139  and  _142
REMARK   62  A    between atoms: _142  and  _143
REMARK   63  A    between atoms: _146  and  _148
REMARK   64  A    between atoms: _148  and  _149
REMARK   65  A    between atoms: _151  and  _153
REMARK   66  A    between atoms: _153  and  _154
REMARK   67  A    between atoms: _156  and  _158
REMARK   68  A    between atoms: _158  and  _159
REMARK   69  A    between atoms: _158  and  _161
REMARK   70  A    between atoms: _161  and  _162
REMARK   71  A    between atoms: _165  and  _167
REMARK   72  A    between atoms: _167  and  _168
REMARK   73  A    between atoms: _167  and  _170
REMARK   74  A    between atoms: _173  and  _175
REMARK   75  A    between atoms: _175  and  _176
REMARK   76  A    between atoms: _175  and  _178
REMARK   77  A    between atoms: _178  and  _179
REMARK   78  A    between atoms: _183  and  _184
REMARK   79  A    between atoms: _189  and  _191
REMARK   80  A    between atoms: _191  and  _192
REMARK   81  A    between atoms: _191  and  _194
REMARK   82  A    between atoms: _194  and  _195
REMARK   83  A    between atoms: _199  and  _200
REMARK   84  A    between atoms: _205  and  _207
REMARK   85  A    between atoms: _207  and  _208
REMARK   86  A    between atoms: _207  and  _210
REMARK   87  A    between atoms: _213  and  _215
REMARK   88  A    between atoms: _215  and  _216
REMARK   89  A    between atoms: _215  and  _218
REMARK   90  A    between atoms: _218  and  _219
REMARK   91  A    between atoms: _224  and  _226
REMARK   92  A    between atoms: _226  and  _227
REMARK   93  A    between atoms: _226  and  _229
REMARK   94  A    between atoms: _229  and  _230
REMARK   95  A    between atoms: _233  and  _235
REMARK   96  A    between atoms: _235  and  _236
REMARK   97  A    between atoms: _235  and  _238
REMARK   98  A    between atoms: _238  and  _239
REMARK   99  A    between atoms: _242  and  _244
REMARK  100  A    between atoms: _244  and  _245
REMARK  101  A    between atoms: _247  and  _249
REMARK  102  A    between atoms: _249  and  _250
REMARK  103  A    between atoms: _249  and  _252
REMARK  104  A    between atoms: _252  and  _253
REMARK  105  A    between atoms: _253  and  _254
REMARK  106  A    between atoms: _254  and  _255
REMARK  107  A    between atoms: _264  and  _266
REMARK  108  A    between atoms: _266  and  _267
REMARK  109  A    between atoms: _266  and  _269
REMARK  110  A    between atoms: _269  and  _270
REMARK  111  A    between atoms: _275  and  _277
REMARK  112  A    between atoms: _277  and  _278
REMARK  113  A    between atoms: _277  and  _280
REMARK  114  A    between atoms: _280  and  _281
REMARK  115  A    between atoms: _281  and  _282
REMARK  116  A    between atoms: _282  and  _283
REMARK  117  A    between atoms: _292  and  _294
REMARK  118  A    between atoms: _294  and  _295
REMARK  119  A    between atoms: _294  and  _297
REMARK  120  A    between atoms: _297  and  _298
REMARK  121  A    between atoms: _301  and  _303
REMARK  122  A    between atoms: _303  and  _304
REMARK  123  A    between atoms: _303  and  _306
REMARK  124  A    between atoms: _306  and  _307
REMARK  125  A    between atoms: _310  and  _312
REMARK  126  A    between atoms: _312  and  _313
REMARK  127  A    between atoms: _312  and  _315
REMARK  128  A    between atoms: _315  and  _316
REMARK  129  A    between atoms: _319  and  _321
REMARK  130  A    between atoms: _321  and  _322
REMARK  131  A    between atoms: _321  and  _324
REMARK  132  A    between atoms: _324  and  _325
REMARK  133  A    between atoms: _328  and  _330
REMARK  134  A    between atoms: _330  and  _331
REMARK  135  A    between atoms: _333  and  _335
REMARK  136  A    between atoms: _335  and  _336
REMARK  137  A    between atoms: _339  and  _341
REMARK  138  A    between atoms: _341  and  _342
REMARK  139  A    between atoms: _341  and  _344
REMARK  140  A    between atoms: _344  and  _345
REMARK  141  A    between atoms: _348  and  _350
REMARK  142  A    between atoms: _350  and  _351
REMARK  143  A    between atoms: _350  and  _353
REMARK  144  A    between atoms: _353  and  _354
REMARK  145  A    between atoms: _357  and  _359
REMARK  146  A    between atoms: _359  and  _360
REMARK  147  A    between atoms: _359  and  _362
REMARK  148  A    between atoms: _362  and  _363
REMARK  149  A    between atoms: _366  and  _368
REMARK  150  A    between atoms: _368  and  _369
REMARK  151  A    between atoms: _368  and  _371
REMARK  152  A    between atoms: _374  and  _376
REMARK  153  A    between atoms: _376  and  _377
REMARK  154  A    between atoms: _376  and  _379
REMARK  155  A    between atoms: _379  and  _380
REMARK  156  A    between atoms: _380  and  _381
REMARK  157  A    between atoms: _381  and  _382
REMARK  158  A    between atoms: _382  and  _383
REMARK  159  A    between atoms: _387  and  _389
REMARK  160  A    between atoms: _389  and  _390
REMARK  161  A    between atoms: _389  and  _392
REMARK  162  A    between atoms: _392  and  _393
REMARK  163  A    between atoms: _393  and  _394
REMARK  164  A    between atoms: _396  and  _398
REMARK  165  A    between atoms: _398  and  _399
REMARK  166  A    between atoms: _398  and  _401
REMARK  167  A    between atoms: _401  and  _402
REMARK  168  A    between atoms: _405  and  _407
REMARK  169  A    between atoms: _407  and  _408
REMARK  170  A    between atoms: _410  and  _412
REMARK  171  A    between atoms: _412  and  _413
REMARK  172  A    between atoms: _415  and  _417
REMARK  173  A    between atoms: _417  and  _418
REMARK  174  A    between atoms: _417  and  _420
REMARK  175  A    between atoms: _420  and  _421
REMARK  176  A    between atoms: _424  and  _426
REMARK  177  A    between atoms: _426  and  _427
REMARK  178  A    between atoms: _429  and  _431
REMARK  179  A    between atoms: _431  and  _432
REMARK  180  A    between atoms: _434  and  _436
REMARK  181  A    between atoms: _436  and  _437
REMARK  182  A    between atoms: _436  and  _439
REMARK  183  A    between atoms: _439  and  _440
REMARK  184  A    between atoms: _446  and  _448
REMARK  185  A    between atoms: _448  and  _449
REMARK  186  A    between atoms: _448  and  _451
REMARK  187  A    between atoms: _451  and  _452
REMARK  188  A    between atoms: _455  and  _457
REMARK  189  A    between atoms: _457  and  _458
REMARK  190  A    between atoms: _457  and  _460
REMARK  191  A    between atoms: _460  and  _461
REMARK  192  A    between atoms: _464  and  _466
REMARK  193  A    between atoms: _466  and  _467
REMARK  194  A    between atoms: _466  and  _469
REMARK  195  A    between atoms: _469  and  _470
REMARK  196  A    between atoms: _474  and  _475
REMARK  197  A    between atoms: _480  and  _482
REMARK  198  A    between atoms: _482  and  _483
REMARK  199  A    between atoms: _482  and  _485
REMARK  200  A    between atoms: _488  and  _490
REMARK  201  A    between atoms: _490  and  _491
REMARK  202  A    between atoms: _490  and  _493
REMARK  203  A    between atoms: _493  and  _494
REMARK  204  A    between atoms: _499  and  _501
REMARK  205  A    between atoms: _501  and  _502
REMARK  206  A    between atoms: _501  and  _504
REMARK  207  A    between atoms: _504  and  _505
REMARK  208  A    between atoms: _508  and  _510
REMARK  209  A    between atoms: _510  and  _511
REMARK  210  A    between atoms: _510  and  _513
REMARK  211  A    between atoms: _513  and  _514
REMARK  212  A    between atoms: _517  and  _519
REMARK  213  A    between atoms: _519  and  _520
REMARK  214  A    between atoms: _522  and  _524
REMARK  215  A    between atoms: _524  and  _525
REMARK  216  A    between atoms: _524  and  _527
REMARK  217  A    between atoms: _527  and  _528
REMARK  218  A    between atoms: _528  and  _529
REMARK  219  A    between atoms: _529  and  _530
REMARK  220  A    between atoms: _539  and  _541
REMARK  221  A    between atoms: _541  and  _542
REMARK  222  A    between atoms: _541  and  _544
REMARK  223  A    between atoms: _544  and  _545
REMARK                            x       y       z     vdW  Elec       q    Type
REMARK                         _______ _______ _______ _____ _____    ______ ____
ROOT
ATOM      1  O   HOH     1      21.520  41.925  21.525  0.00  0.00    +0.000 OA
ENDROOT
TORSDOF 0
REMARK  Name = ../refined-set-2016/2qi0/2qi0_pocket.pdb
REMARK  223 active torsions:
REMARK  status: ('A' for Active; 'I' for Inactive)
REMARK    1  A    between atoms: _1  and  _3
REMARK    2  A    between atoms: _3  and  _4
REMARK    3  A    between atoms: _3  and  _6
REMARK    4  A    between atoms: _6  and  _7
REMARK    5  A    between atoms: _7  and  _8
REMARK    6  A    between atoms: _8  and  _9
REMARK    7  A    between atoms: _18  and  _20
REMARK    8  A    between atoms: _20  and  _21
REMARK    9  A    between atoms: _20  and  _23
REMARK   10  A    between atoms: _23  and  _24
REMARK   11  A    between atoms: _27  and  _29
REMARK   12  A    between atoms: _29  and  _30
REMARK   13  A    between atoms: _29  and  _32
REMARK   14  A    between atoms: _32  and  _33
REMARK   15  A    between atoms: _36  and  _38
REMARK   16  A    between atoms: _38  and  _39
REMARK   17  A    between atoms: _38  and  _41
REMARK   18  A    between atoms: _41  and  _42
REMARK   19  A    between atoms: _45  and  _47
REMARK   20  A    between atoms: _47  and  _48
REMARK   21  A    between atoms: _47  and  _50
REMARK   22  A    between atoms: _50  and  _51
REMARK   23  A    between atoms: _54  and  _56
REMARK   24  A    between atoms: _56  and  _57
REMARK   25  A    between atoms: _59  and  _61
REMARK   26  A    between atoms: _61  and  _62
REMARK   27  A    between atoms: _65  and  _67
REMARK   28  A    between atoms: _67  and  _68
REMARK   29  A    between atoms: _67  and  _70
REMARK   30  A    between atoms: _70  and  _71
REMARK   31  A    between atoms: _74  and  _76
REMARK   32  A    between atoms: _76  and  _77
REMARK   33  A    between atoms: _76  and  _79
REMARK   34  A    between atoms: _79  and  _80
REMARK   35  A    between atoms: _83  and  _85
REMARK   36  A    between atoms: _85  and  _86
REMARK   37  A    between atoms: _85  and  _88
REMARK   38  A    between atoms: _88  and  _89
REMARK   39  A    between atoms: _92  and  _94
REMARK   40  A    between atoms: _94  and  _95
REMARK   41  A    between atoms: _94  and  _97
REMARK   42  A    between atoms: _100  and  _102
REMARK   43  A    between atoms: _102  and  _103
REMARK   44  A    between atoms: _102  and  _105
REMARK   45  A    between atoms: _105  and  _106
REMARK   46  A    between atoms: _109  and  _111
REMARK   47  A    between atoms: _111  and  _112
REMARK   48  A    between atoms: _111  and  _114
REMARK   49  A    between atoms: _114  and  _115
REMARK   50  A    between atoms: _115  and  _116
REMARK   51  A    between atoms: _118  and  _120
REMARK   52  A    between atoms: _120  and  _121
REMARK   53  A    between atoms: _120  and  _123
REMARK   54  A    between atoms: _123  and  _124
REMARK   55  A    between atoms: _127  and  _129
REMARK   56  A    between atoms: _129  and  _130
REMARK   57  A    between atoms: _132  and  _134
REMARK   58  A    between atoms: _134  and  _135
REMARK   59  A    between atoms: _137  and  _139
REMARK   60  A    between atoms: _139  and  _140
REMARK   61  A    between atoms: _139  and  _142
REMARK   62  A    between atoms: _142  and  _143
REMARK   63  A    between atoms: _146  and  _148
REMARK   64  A    between atoms: _148  and  _149
REMARK   65  A    between atoms: _151  and  _153
REMARK   66  A    between atoms: _153  and  _154
REMARK   67  A    between atoms: _156  and  _158
REMARK   68  A    between atoms: _158  and  _159
REMARK   69  A    between atoms: _158  and  _161
REMARK   70  A    between atoms: _161  and  _162
REMARK   71  A    between atoms: _165  and  _167
REMARK   72  A    between atoms: _167  and  _168
REMARK   73  A    between atoms: _167  and  _170
REMARK   74  A    between atoms: _173  and  _175
REMARK   75  A    between atoms: _175  and  _176
REMARK   76  A    between atoms: _175  and  _178
REMARK   77  A    between atoms: _178  and  _179
REMARK   78  A    between atoms: _183  and  _184
REMARK   79  A    between atoms: _189  and  _191
REMARK   80  A    between atoms: _191  and  _192
REMARK   81  A    between atoms: _191  and  _194
REMARK   82  A    between atoms: _194  and  _195
REMARK   83  A    between atoms: _199  and  _200
REMARK   84  A    between atoms: _205  and  _207
REMARK   85  A    between atoms: _207  and  _208
REMARK   86  A    between atoms: _207  and  _210
REMARK   87  A    between atoms: _213  and  _215
REMARK   88  A    between atoms: _215  and  _216
REMARK   89  A    between atoms: _215  and  _218
REMARK   90  A    between atoms: _218  and  _219
REMARK   91  A    between atoms: _224  and  _226
REMARK   92  A    between atoms: _226  and  _227
REMARK   93  A    between atoms: _226  and  _229
REMARK   94  A    between atoms: _229  and  _230
REMARK   95  A    between atoms: _233  and  _235
REMARK   96  A    between atoms: _235  and  _236
REMARK   97  A    between atoms: _235  and  _238
REMARK   98  A    between atoms: _238  and  _239
REMARK   99  A    between atoms: _242  and  _244
REMARK  100  A    between atoms: _244  and  _245
REMARK  101  A    between atoms: _247  and  _249
REMARK  102  A    between atoms: _249  and  _250
REMARK  103  A    between atoms: _249  and  _252
REMARK  104  A    between atoms: _252  and  _253
REMARK  105  A    between atoms: _253  and  _254
REMARK  106  A    between atoms: _254  and  _255
REMARK  107  A    between atoms: _264  and  _266
REMARK  108  A    between atoms: _266  and  _267
REMARK  109  A    between atoms: _266  and  _269
REMARK  110  A    between atoms: _269  and  _270
REMARK  111  A    between atoms: _275  and  _277
REMARK  112  A    between atoms: _277  and  _278
REMARK  113  A    between atoms: _277  and  _280
REMARK  114  A    between atoms: _280  and  _281
REMARK  115  A    between atoms: _281  and  _282
REMARK  116  A    between atoms: _282  and  _283
REMARK  117  A    between atoms: _292  and  _294
REMARK  118  A    between atoms: _294  and  _295
REMARK  119  A    between atoms: _294  and  _297
REMARK  120  A    between atoms: _297  and  _298
REMARK  121  A    between atoms: _301  and  _303
REMARK  122  A    between atoms: _303  and  _304
REMARK  123  A    between atoms: _303  and  _306
REMARK  124  A    between atoms: _306  and  _307
REMARK  125  A    between atoms: _310  and  _312
REMARK  126  A    between atoms: _312  and  _313
REMARK  127  A    between atoms: _312  and  _315
REMARK  128  A    between atoms: _315  and  _316
REMARK  129  A    between atoms: _319  and  _321
REMARK  130  A    between atoms: _321  and  _322
REMARK  131  A    between atoms: _321  and  _324
REMARK  132  A    between atoms: _324  and  _325
REMARK  133  A    between atoms: _328  and  _330
REMARK  134  A    between atoms: _330  and  _331
REMARK  135  A    between atoms: _333  and  _335
REMARK  136  A    between atoms: _335  and  _336
REMARK  137  A    between atoms: _339  and  _341
REMARK  138  A    between atoms: _341  and  _342
REMARK  139  A    between atoms: _341  and  _344
REMARK  140  A    between atoms: _344  and  _345
REMARK  141  A    between atoms: _348  and  _350
REMARK  142  A    between atoms: _350  and  _351
REMARK  143  A    between atoms: _350  and  _353
REMARK  144  A    between atoms: _353  and  _354
REMARK  145  A    between atoms: _357  and  _359
REMARK  146  A    between atoms: _359  and  _360
REMARK  147  A    between atoms: _359  and  _362
REMARK  148  A    between atoms: _362  and  _363
REMARK  149  A    between atoms: _366  and  _368
REMARK  150  A    between atoms: _368  and  _369
REMARK  151  A    between atoms: _368  and  _371
REMARK  152  A    between atoms: _374  and  _376
REMARK  153  A    between atoms: _376  and  _377
REMARK  154  A    between atoms: _376  and  _379
REMARK  155  A    between atoms: _379  and  _380
REMARK  156  A    between atoms: _380  and  _381
REMARK  157  A    between atoms: _381  and  _382
REMARK  158  A    between atoms: _382  and  _383
REMARK  159  A    between atoms: _387  and  _389
REMARK  160  A    between atoms: _389  and  _390
REMARK  161  A    between atoms: _389  and  _392
REMARK  162  A    between atoms: _392  and  _393
REMARK  163  A    between atoms: _393  and  _394
REMARK  164  A    between atoms: _396  and  _398
REMARK  165  A    between atoms: _398  and  _399
REMARK  166  A    between atoms: _398  and  _401
REMARK  167  A    between atoms: _401  and  _402
REMARK  168  A    between atoms: _405  and  _407
REMARK  169  A    between atoms: _407  and  _408
REMARK  170  A    between atoms: _410  and  _412
REMARK  171  A    between atoms: _412  and  _413
REMARK  172  A    between atoms: _415  and  _417
REMARK  173  A    between atoms: _417  and  _418
REMARK  174  A    between atoms: _417  and  _420
REMARK  175  A    between atoms: _420  and  _421
REMARK  176  A    between atoms: _424  and  _426
REMARK  177  A    between atoms: _426  and  _427
REMARK  178  A    between atoms: _429  and  _431
REMARK  179  A    between atoms: _431  and  _432
REMARK  180  A    between atoms: _434  and  _436
REMARK  181  A    between atoms: _436  and  _437
REMARK  182  A    between atoms: _436  and  _439
REMARK  183  A    between atoms: _439  and  _440
REMARK  184  A    between atoms: _446  and  _448
REMARK  185  A    between atoms: _448  and  _449
REMARK  186  A    between atoms: _448  and  _451
REMARK  187  A    between atoms: _451  and  _452
REMARK  188  A    between atoms: _455  and  _457
REMARK  189  A    between atoms: _457  and  _458
REMARK  190  A    between atoms: _457  and  _460
REMARK  191  A    between atoms: _460  and  _461
REMARK  192  A    between atoms: _464  and  _466
REMARK  193  A    between atoms: _466  and  _467
REMARK  194  A    between atoms: _466  and  _469
REMARK  195  A    between atoms: _469  and  _470
REMARK  196  A    between atoms: _474  and  _475
REMARK  197  A    between atoms: _480  and  _482
REMARK  198  A    between atoms: _482  and  _483
REMARK  199  A    between atoms: _482  and  _485
REMARK  200  A    between atoms: _488  and  _490
REMARK  201  A    between atoms: _490  and  _491
REMARK  202  A    between atoms: _490  and  _493
REMARK  203  A    between atoms: _493  and  _494
REMARK  204  A    between atoms: _499  and  _501
REMARK  205  A    between atoms: _501  and  _502
REMARK  206  A    between atoms: _501  and  _504
REMARK  207  A    between atoms: _504  and  _505
REMARK  208  A    between atoms: _508  and  _510
REMARK  209  A    between atoms: _510  and  _511
REMARK  210  A    between atoms: _510  and  _513
REMARK  211  A    between atoms: _513  and  _514
REMARK  212  A    between atoms: _517  and  _519
REMARK  213  A    between atoms: _519  and  _520
REMARK  214  A    between atoms: _522  and  _524
REMARK  215  A    between atoms: _524  and  _525
REMARK  216  A    between atoms: _524  and  _527
REMARK  217  A    between atoms: _527  and  _528
REMARK  218  A    between atoms: _528  and  _529
REMARK  219  A    between atoms: _529  and  _530
REMARK  220  A    between atoms: _539  and  _541
REMARK  221  A    between atoms: _541  and  _542
REMARK  222  A    between atoms: _541  and  _544
REMARK  223  A    between atoms: _544  and  _545
REMARK                            x       y       z     vdW  Elec       q    Type
REMARK                         _______ _______ _______ _____ _____    ______ ____
ROOT
ATOM      1  O   HOH     1      24.980  23.674   7.742  0.00  0.00    +0.000 OA
ENDROOT
TORSDOF 0
REMARK  Name = ../refined-set-2016/2qi0/2qi0_pocket.pdb
REMARK  223 active torsions:
REMARK  status: ('A' for Active; 'I' for Inactive)
REMARK    1  A    between atoms: _1  and  _3
REMARK    2  A    between atoms: _3  and  _4
REMARK    3  A    between atoms: _3  and  _6
REMARK    4  A    between atoms: _6  and  _7
REMARK    5  A    between atoms: _7  and  _8
REMARK    6  A    between atoms: _8  and  _9
REMARK    7  A    between atoms: _18  and  _20
REMARK    8  A    between atoms: _20  and  _21
REMARK    9  A    between atoms: _20  and  _23
REMARK   10  A    between atoms: _23  and  _24
REMARK   11  A    between atoms: _27  and  _29
REMARK   12  A    between atoms: _29  and  _30
REMARK   13  A    between atoms: _29  and  _32
REMARK   14  A    between atoms: _32  and  _33
REMARK   15  A    between atoms: _36  and  _38
REMARK   16  A    between atoms: _38  and  _39
REMARK   17  A    between atoms: _38  and  _41
REMARK   18  A    between atoms: _41  and  _42
REMARK   19  A    between atoms: _45  and  _47
REMARK   20  A    between atoms: _47  and  _48
REMARK   21  A    between atoms: _47  and  _50
REMARK   22  A    between atoms: _50  and  _51
REMARK   23  A    between atoms: _54  and  _56
REMARK   24  A    between atoms: _56  and  _57
REMARK   25  A    between atoms: _59  and  _61
REMARK   26  A    between atoms: _61  and  _62
REMARK   27  A    between atoms: _65  and  _67
REMARK   28  A    between atoms: _67  and  _68
REMARK   29  A    between atoms: _67  and  _70
REMARK   30  A    between atoms: _70  and  _71
REMARK   31  A    between atoms: _74  and  _76
REMARK   32  A    between atoms: _76  and  _77
REMARK   33  A    between atoms: _76  and  _79
REMARK   34  A    between atoms: _79  and  _80
REMARK   35  A    between atoms: _83  and  _85
REMARK   36  A    between atoms: _85  and  _86
REMARK   37  A    between atoms: _85  and  _88
REMARK   38  A    between atoms: _88  and  _89
REMARK   39  A    between atoms: _92  and  _94
REMARK   40  A    between atoms: _94  and  _95
REMARK   41  A    between atoms: _94  and  _97
REMARK   42  A    between atoms: _100  and  _102
REMARK   43  A    between atoms: _102  and  _103
REMARK   44  A    between atoms: _102  and  _105
REMARK   45  A    between atoms: _105  and  _106
REMARK   46  A    between atoms: _109  and  _111
REMARK   47  A    between atoms: _111  and  _112
REMARK   48  A    between atoms: _111  and  _114
REMARK   49  A    between atoms: _114  and  _115
REMARK   50  A    between atoms: _115  and  _116
REMARK   51  A    between atoms: _118  and  _120
REMARK   52  A    between atoms: _120  and  _121
REMARK   53  A    between atoms: _120  and  _123
REMARK   54  A    between atoms: _123  and  _124
REMARK   55  A    between atoms: _127  and  _129
REMARK   56  A    between atoms: _129  and  _130
REMARK   57  A    between atoms: _132  and  _134
REMARK   58  A    between atoms: _134  and  _135
REMARK   59  A    between atoms: _137  and  _139
REMARK   60  A    between atoms: _139  and  _140
REMARK   61  A    between atoms: _139  and  _142
REMARK   62  A    between atoms: _142  and  _143
REMARK   63  A    between atoms: _146  and  _148
REMARK   64  A    between atoms: _148  and  _149
REMARK   65  A    between atoms: _151  and  _153
REMARK   66  A    between atoms: _153  and  _154
REMARK   67  A    between atoms: _156  and  _158
REMARK   68  A    between atoms: _158  and  _159
REMARK   69  A    between atoms: _158  and  _161
REMARK   70  A    between atoms: _161  and  _162
REMARK   71  A    between atoms: _165  and  _167
REMARK   72  A    between atoms: _167  and  _168
REMARK   73  A    between atoms: _167  and  _170
REMARK   74  A    between atoms: _173  and  _175
REMARK   75  A    between atoms: _175  and  _176
REMARK   76  A    between atoms: _175  and  _178
REMARK   77  A    between atoms: _178  and  _179
REMARK   78  A    between atoms: _183  and  _184
REMARK   79  A    between atoms: _189  and  _191
REMARK   80  A    between atoms: _191  and  _192
REMARK   81  A    between atoms: _191  and  _194
REMARK   82  A    between atoms: _194  and  _195
REMARK   83  A    between atoms: _199  and  _200
REMARK   84  A    between atoms: _205  and  _207
REMARK   85  A    between atoms: _207  and  _208
REMARK   86  A    between atoms: _207  and  _210
REMARK   87  A    between atoms: _213  and  _215
REMARK   88  A    between atoms: _215  and  _216
REMARK   89  A    between atoms: _215  and  _218
REMARK   90  A    between atoms: _218  and  _219
REMARK   91  A    between atoms: _224  and  _226
REMARK   92  A    between atoms: _226  and  _227
REMARK   93  A    between atoms: _226  and  _229
REMARK   94  A    between atoms: _229  and  _230
REMARK   95  A    between atoms: _233  and  _235
REMARK   96  A    between atoms: _235  and  _236
REMARK   97  A    between atoms: _235  and  _238
REMARK   98  A    between atoms: _238  and  _239
REMARK   99  A    between atoms: _242  and  _244
REMARK  100  A    between atoms: _244  and  _245
REMARK  101  A    between atoms: _247  and  _249
REMARK  102  A    between atoms: _249  and  _250
REMARK  103  A    between atoms: _249  and  _252
REMARK  104  A    between atoms: _252  and  _253
REMARK  105  A    between atoms: _253  and  _254
REMARK  106  A    between atoms: _254  and  _255
REMARK  107  A    between atoms: _264  and  _266
REMARK  108  A    between atoms: _266  and  _267
REMARK  109  A    between atoms: _266  and  _269
REMARK  110  A    between atoms: _269  and  _270
REMARK  111  A    between atoms: _275  and  _277
REMARK  112  A    between atoms: _277  and  _278
REMARK  113  A    between atoms: _277  and  _280
REMARK  114  A    between atoms: _280  and  _281
REMARK  115  A    between atoms: _281  and  _282
REMARK  116  A    between atoms: _282  and  _283
REMARK  117  A    between atoms: _292  and  _294
REMARK  118  A    between atoms: _294  and  _295
REMARK  119  A    between atoms: _294  and  _297
REMARK  120  A    between atoms: _297  and  _298
REMARK  121  A    between atoms: _301  and  _303
REMARK  122  A    between atoms: _303  and  _304
REMARK  123  A    between atoms: _303  and  _306
REMARK  124  A    between atoms: _306  and  _307
REMARK  125  A    between atoms: _310  and  _312
REMARK  126  A    between atoms: _312  and  _313
REMARK  127  A    between atoms: _312  and  _315
REMARK  128  A    between atoms: _315  and  _316
REMARK  129  A    between atoms: _319  and  _321
REMARK  130  A    between atoms: _321  and  _322
REMARK  131  A    between atoms: _321  and  _324
REMARK  132  A    between atoms: _324  and  _325
REMARK  133  A    between atoms: _328  and  _330
REMARK  134  A    between atoms: _330  and  _331
REMARK  135  A    between atoms: _333  and  _335
REMARK  136  A    between atoms: _335  and  _336
REMARK  137  A    between atoms: _339  and  _341
REMARK  138  A    between atoms: _341  and  _342
REMARK  139  A    between atoms: _341  and  _344
REMARK  140  A    between atoms: _344  and  _345
REMARK  141  A    between atoms: _348  and  _350
REMARK  142  A    between atoms: _350  and  _351
REMARK  143  A    between atoms: _350  and  _353
REMARK  144  A    between atoms: _353  and  _354
REMARK  145  A    between atoms: _357  and  _359
REMARK  146  A    between atoms: _359  and  _360
REMARK  147  A    between atoms: _359  and  _362
REMARK  148  A    between atoms: _362  and  _363
REMARK  149  A    between atoms: _366  and  _368
REMARK  150  A    between atoms: _368  and  _369
REMARK  151  A    between atoms: _368  and  _371
REMARK  152  A    between atoms: _374  and  _376
REMARK  153  A    between atoms: _376  and  _377
REMARK  154  A    between atoms: _376  and  _379
REMARK  155  A    between atoms: _379  and  _380
REMARK  156  A    between atoms: _380  and  _381
REMARK  157  A    between atoms: _381  and  _382
REMARK  158  A    between atoms: _382  and  _383
REMARK  159  A    between atoms: _387  and  _389
REMARK  160  A    between atoms: _389  and  _390
REMARK  161  A    between atoms: _389  and  _392
REMARK  162  A    between atoms: _392  and  _393
REMARK  163  A    between atoms: _393  and  _394
REMARK  164  A    between atoms: _396  and  _398
REMARK  165  A    between atoms: _398  and  _399
REMARK  166  A    between atoms: _398  and  _401
REMARK  167  A    between atoms: _401  and  _402
REMARK  168  A    between atoms: _405  and  _407
REMARK  169  A    between atoms: _407  and  _408
REMARK  170  A    between atoms: _410  and  _412
REMARK  171  A    between atoms: _412  and  _413
REMARK  172  A    between atoms: _415  and  _417
REMARK  173  A    between atoms: _417  and  _418
REMARK  174  A    between atoms: _417  and  _420
REMARK  175  A    between atoms: _420  and  _421
REMARK  176  A    between atoms: _424  and  _426
REMARK  177  A    between atoms: _426  and  _427
REMARK  178  A    between atoms: _429  and  _431
REMARK  179  A    between atoms: _431  and  _432
REMARK  180  A    between atoms: _434  and  _436
REMARK  181  A    between atoms: _436  and  _437
REMARK  182  A    between atoms: _436  and  _439
REMARK  183  A    between atoms: _439  and  _440
REMARK  184  A    between atoms: _446  and  _448
REMARK  185  A    between atoms: _448  and  _449
REMARK  186  A    between atoms: _448  and  _451
REMARK  187  A    between atoms: _451  and  _452
REMARK  188  A    between atoms: _455  and  _457
REMARK  189  A    between atoms: _457  and  _458
REMARK  190  A    between atoms: _457  and  _460
REMARK  191  A    between atoms: _460  and  _461
REMARK  192  A    between atoms: _464  and  _466
REMARK  193  A    between atoms: _466  and  _467
REMARK  194  A    between atoms: _466  and  _469
REMARK  195  A    between atoms: _469  and  _470
REMARK  196  A    between atoms: _474  and  _475
REMARK  197  A    between atoms: _480  and  _482
REMARK  198  A    between atoms: _482  and  _483
REMARK  199  A    between atoms: _482  and  _485
REMARK  200  A    between atoms: _488  and  _490
REMARK  201  A    between atoms: _490  and  _491
REMARK  202  A    between atoms: _490  and  _493
REMARK  203  A    between atoms: _493  and  _494
REMARK  204  A    between atoms: _499  and  _501
REMARK  205  A    between atoms: _501  and  _502
REMARK  206  A    between atoms: _501  and  _504
REMARK  207  A    between atoms: _504  and  _505
REMARK  208  A    between atoms: _508  and  _510
REMARK  209  A    between atoms: _510  and  _511
REMARK  210  A    between atoms: _510  and  _513
REMARK  211  A    between atoms: _513  and  _514
REMARK  212  A    between atoms: _517  and  _519
REMARK  213  A    between atoms: _519  and  _520
REMARK  214  A    between atoms: _522  and  _524
REMARK  215  A    between atoms: _524  and  _525
REMARK  216  A    between atoms: _524  and  _527
REMARK  217  A    between atoms: _527  and  _528
REMARK  218  A    between atoms: _528  and  _529
REMARK  219  A    between atoms: _529  and  _530
REMARK  220  A    between atoms: _539  and  _541
REMARK  221  A    between atoms: _541  and  _542
REMARK  222  A    between atoms: _541  and  _544
REMARK  223  A    between atoms: _544  and  _545
REMARK                            x       y       z     vdW  Elec       q    Type
REMARK                         _______ _______ _______ _____ _____    ______ ____
ROOT
ATOM      1  O   HOH     1      24.114  21.346   7.795  0.00  0.00    +0.000 OA
ENDROOT
TORSDOF 0
REMARK  Name = ../refined-set-2016/2qi0/2qi0_pocket.pdb
REMARK  223 active torsions:
REMARK  status: ('A' for Active; 'I' for Inactive)
REMARK    1  A    between atoms: _1  and  _3
REMARK    2  A    between atoms: _3  and  _4
REMARK    3  A    between atoms: _3  and  _6
REMARK    4  A    between atoms: _6  and  _7
REMARK    5  A    between atoms: _7  and  _8
REMARK    6  A    between atoms: _8  and  _9
REMARK    7  A    between atoms: _18  and  _20
REMARK    8  A    between atoms: _20  and  _21
REMARK    9  A    between atoms: _20  and  _23
REMARK   10  A    between atoms: _23  and  _24
REMARK   11  A    between atoms: _27  and  _29
REMARK   12  A    between atoms: _29  and  _30
REMARK   13  A    between atoms: _29  and  _32
REMARK   14  A    between atoms: _32  and  _33
REMARK   15  A    between atoms: _36  and  _38
REMARK   16  A    between atoms: _38  and  _39
REMARK   17  A    between atoms: _38  and  _41
REMARK   18  A    between atoms: _41  and  _42
REMARK   19  A    between atoms: _45  and  _47
REMARK   20  A    between atoms: _47  and  _48
REMARK   21  A    between atoms: _47  and  _50
REMARK   22  A    between atoms: _50  and  _51
REMARK   23  A    between atoms: _54  and  _56
REMARK   24  A    between atoms: _56  and  _57
REMARK   25  A    between atoms: _59  and  _61
REMARK   26  A    between atoms: _61  and  _62
REMARK   27  A    between atoms: _65  and  _67
REMARK   28  A    between atoms: _67  and  _68
REMARK   29  A    between atoms: _67  and  _70
REMARK   30  A    between atoms: _70  and  _71
REMARK   31  A    between atoms: _74  and  _76
REMARK   32  A    between atoms: _76  and  _77
REMARK   33  A    between atoms: _76  and  _79
REMARK   34  A    between atoms: _79  and  _80
REMARK   35  A    between atoms: _83  and  _85
REMARK   36  A    between atoms: _85  and  _86
REMARK   37  A    between atoms: _85  and  _88
REMARK   38  A    between atoms: _88  and  _89
REMARK   39  A    between atoms: _92  and  _94
REMARK   40  A    between atoms: _94  and  _95
REMARK   41  A    between atoms: _94  and  _97
REMARK   42  A    between atoms: _100  and  _102
REMARK   43  A    between atoms: _102  and  _103
REMARK   44  A    between atoms: _102  and  _105
REMARK   45  A    between atoms: _105  and  _106
REMARK   46  A    between atoms: _109  and  _111
REMARK   47  A    between atoms: _111  and  _112
REMARK   48  A    between atoms: _111  and  _114
REMARK   49  A    between atoms: _114  and  _115
REMARK   50  A    between atoms: _115  and  _116
REMARK   51  A    between atoms: _118  and  _120
REMARK   52  A    between atoms: _120  and  _121
REMARK   53  A    between atoms: _120  and  _123
REMARK   54  A    between atoms: _123  and  _124
REMARK   55  A    between atoms: _127  and  _129
REMARK   56  A    between atoms: _129  and  _130
REMARK   57  A    between atoms: _132  and  _134
REMARK   58  A    between atoms: _134  and  _135
REMARK   59  A    between atoms: _137  and  _139
REMARK   60  A    between atoms: _139  and  _140
REMARK   61  A    between atoms: _139  and  _142
REMARK   62  A    between atoms: _142  and  _143
REMARK   63  A    between atoms: _146  and  _148
REMARK   64  A    between atoms: _148  and  _149
REMARK   65  A    between atoms: _151  and  _153
REMARK   66  A    between atoms: _153  and  _154
REMARK   67  A    between atoms: _156  and  _158
REMARK   68  A    between atoms: _158  and  _159
REMARK   69  A    between atoms: _158  and  _161
REMARK   70  A    between atoms: _161  and  _162
REMARK   71  A    between atoms: _165  and  _167
REMARK   72  A    between atoms: _167  and  _168
REMARK   73  A    between atoms: _167  and  _170
REMARK   74  A    between atoms: _173  and  _175
REMARK   75  A    between atoms: _175  and  _176
REMARK   76  A    between atoms: _175  and  _178
REMARK   77  A    between atoms: _178  and  _179
REMARK   78  A    between atoms: _183  and  _184
REMARK   79  A    between atoms: _189  and  _191
REMARK   80  A    between atoms: _191  and  _192
REMARK   81  A    between atoms: _191  and  _194
REMARK   82  A    between atoms: _194  and  _195
REMARK   83  A    between atoms: _199  and  _200
REMARK   84  A    between atoms: _205  and  _207
REMARK   85  A    between atoms: _207  and  _208
REMARK   86  A    between atoms: _207  and  _210
REMARK   87  A    between atoms: _213  and  _215
REMARK   88  A    between atoms: _215  and  _216
REMARK   89  A    between atoms: _215  and  _218
REMARK   90  A    between atoms: _218  and  _219
REMARK   91  A    between atoms: _224  and  _226
REMARK   92  A    between atoms: _226  and  _227
REMARK   93  A    between atoms: _226  and  _229
REMARK   94  A    between atoms: _229  and  _230
REMARK   95  A    between atoms: _233  and  _235
REMARK   96  A    between atoms: _235  and  _236
REMARK   97  A    between atoms: _235  and  _238
REMARK   98  A    between atoms: _238  and  _239
REMARK   99  A    between atoms: _242  and  _244
REMARK  100  A    between atoms: _244  and  _245
REMARK  101  A    between atoms: _247  and  _249
REMARK  102  A    between atoms: _249  and  _250
REMARK  103  A    between atoms: _249  and  _252
REMARK  104  A    between atoms: _252  and  _253
REMARK  105  A    between atoms: _253  and  _254
REMARK  106  A    between atoms: _254  and  _255
REMARK  107  A    between atoms: _264  and  _266
REMARK  108  A    between atoms: _266  and  _267
REMARK  109  A    between atoms: _266  and  _269
REMARK  110  A    between atoms: _269  and  _270
REMARK  111  A    between atoms: _275  and  _277
REMARK  112  A    between atoms: _277  and  _278
REMARK  113  A    between atoms: _277  and  _280
REMARK  114  A    between atoms: _280  and  _281
REMARK  115  A    between atoms: _281  and  _282
REMARK  116  A    between atoms: _282  and  _283
REMARK  117  A    between atoms: _292  and  _294
REMARK  118  A    between atoms: _294  and  _295
REMARK  119  A    between atoms: _294  and  _297
REMARK  120  A    between atoms: _297  and  _298
REMARK  121  A    between atoms: _301  and  _303
REMARK  122  A    between atoms: _303  and  _304
REMARK  123  A    between atoms: _303  and  _306
REMARK  124  A    between atoms: _306  and  _307
REMARK  125  A    between atoms: _310  and  _312
REMARK  126  A    between atoms: _312  and  _313
REMARK  127  A    between atoms: _312  and  _315
REMARK  128  A    between atoms: _315  and  _316
REMARK  129  A    between atoms: _319  and  _321
REMARK  130  A    between atoms: _321  and  _322
REMARK  131  A    between atoms: _321  and  _324
REMARK  132  A    between atoms: _324  and  _325
REMARK  133  A    between atoms: _328  and  _330
REMARK  134  A    between atoms: _330  and  _331
REMARK  135  A    between atoms: _333  and  _335
REMARK  136  A    between atoms: _335  and  _336
REMARK  137  A    between atoms: _339  and  _341
REMARK  138  A    between atoms: _341  and  _342
REMARK  139  A    between atoms: _341  and  _344
REMARK  140  A    between atoms: _344  and  _345
REMARK  141  A    between atoms: _348  and  _350
REMARK  142  A    between atoms: _350  and  _351
REMARK  143  A    between atoms: _350  and  _353
REMARK  144  A    between atoms: _353  and  _354
REMARK  145  A    between atoms: _357  and  _359
REMARK  146  A    between atoms: _359  and  _360
REMARK  147  A    between atoms: _359  and  _362
REMARK  148  A    between atoms: _362  and  _363
REMARK  149  A    between atoms: _366  and  _368
REMARK  150  A    between atoms: _368  and  _369
REMARK  151  A    between atoms: _368  and  _371
REMARK  152  A    between atoms: _374  and  _376
REMARK  153  A    between atoms: _376  and  _377
REMARK  154  A    between atoms: _376  and  _379
REMARK  155  A    between atoms: _379  and  _380
REMARK  156  A    between atoms: _380  and  _381
REMARK  157  A    between atoms: _381  and  _382
REMARK  158  A    between atoms: _382  and  _383
REMARK  159  A    between atoms: _387  and  _389
REMARK  160  A    between atoms: _389  and  _390
REMARK  161  A    between atoms: _389  and  _392
REMARK  162  A    between atoms: _392  and  _393
REMARK  163  A    between atoms: _393  and  _394
REMARK  164  A    between atoms: _396  and  _398
REMARK  165  A    between atoms: _398  and  _399
REMARK  166  A    between atoms: _398  and  _401
REMARK  167  A    between atoms: _401  and  _402
REMARK  168  A    between atoms: _405  and  _407
REMARK  169  A    between atoms: _407  and  _408
REMARK  170  A    between atoms: _410  and  _412
REMARK  171  A    between atoms: _412  and  _413
REMARK  172  A    between atoms: _415  and  _417
REMARK  173  A    between atoms: _417  and  _418
REMARK  174  A    between atoms: _417  and  _420
REMARK  175  A    between atoms: _420  and  _421
REMARK  176  A    between atoms: _424  and  _426
REMARK  177  A    between atoms: _426  and  _427
REMARK  178  A    between atoms: _429  and  _431
REMARK  179  A    between atoms: _431  and  _432
REMARK  180  A    between atoms: _434  and  _436
REMARK  181  A    between atoms: _436  and  _437
REMARK  182  A    between atoms: _436  and  _439
REMARK  183  A    between atoms: _439  and  _440
REMARK  184  A    between atoms: _446  and  _448
REMARK  185  A    between atoms: _448  and  _449
REMARK  186  A    between atoms: _448  and  _451
REMARK  187  A    between atoms: _451  and  _452
REMARK  188  A    between atoms: _455  and  _457
REMARK  189  A    between atoms: _457  and  _458
REMARK  190  A    between atoms: _457  and  _460
REMARK  191  A    between atoms: _460  and  _461
REMARK  192  A    between atoms: _464  and  _466
REMARK  193  A    between atoms: _466  and  _467
REMARK  194  A    between atoms: _466  and  _469
REMARK  195  A    between atoms: _469  and  _470
REMARK  196  A    between atoms: _474  and  _475
REMARK  197  A    between atoms: _480  and  _482
REMARK  198  A    between atoms: _482  and  _483
REMARK  199  A    between atoms: _482  and  _485
REMARK  200  A    between atoms: _488  and  _490
REMARK  201  A    between atoms: _490  and  _491
REMARK  202  A    between atoms: _490  and  _493
REMARK  203  A    between atoms: _493  and  _494
REMARK  204  A    between atoms: _499  and  _501
REMARK  205  A    between atoms: _501  and  _502
REMARK  206  A    between atoms: _501  and  _504
REMARK  207  A    between atoms: _504  and  _505
REMARK  208  A    between atoms: _508  and  _510
REMARK  209  A    between atoms: _510  and  _511
REMARK  210  A    between atoms: _510  and  _513
REMARK  211  A    between atoms: _513  and  _514
REMARK  212  A    between atoms: _517  and  _519
REMARK  213  A    between atoms: _519  and  _520
REMARK  214  A    between atoms: _522  and  _524
REMARK  215  A    between atoms: _524  and  _525
REMARK  216  A    between atoms: _524  and  _527
REMARK  217  A    between atoms: _527  and  _528
REMARK  218  A    between atoms: _528  and  _529
REMARK  219  A    between atoms: _529  and  _530
REMARK  220  A    between atoms: _539  and  _541
REMARK  221  A    between atoms: _541  and  _542
REMARK  222  A    between atoms: _541  and  _544
REMARK  223  A    between atoms: _544  and  _545
REMARK                            x       y       z     vdW  Elec       q    Type
REMARK                         _______ _______ _______ _____ _____    ______ ____
ROOT
ATOM      1  O   HOH     1      21.003  25.692   7.551  0.00  0.00    +0.000 OA
ENDROOT
TORSDOF 0
REMARK  Name = ../refined-set-2016/2qi0/2qi0_pocket.pdb
REMARK  223 active torsions:
REMARK  status: ('A' for Active; 'I' for Inactive)
REMARK    1  A    between atoms: _1  and  _3
REMARK    2  A    between atoms: _3  and  _4
REMARK    3  A    between atoms: _3  and  _6
REMARK    4  A    between atoms: _6  and  _7
REMARK    5  A    between atoms: _7  and  _8
REMARK    6  A    between atoms: _8  and  _9
REMARK    7  A    between atoms: _18  and  _20
REMARK    8  A    between atoms: _20  and  _21
REMARK    9  A    between atoms: _20  and  _23
REMARK   10  A    between atoms: _23  and  _24
REMARK   11  A    between atoms: _27  and  _29
REMARK   12  A    between atoms: _29  and  _30
REMARK   13  A    between atoms: _29  and  _32
REMARK   14  A    between atoms: _32  and  _33
REMARK   15  A    between atoms: _36  and  _38
REMARK   16  A    between atoms: _38  and  _39
REMARK   17  A    between atoms: _38  and  _41
REMARK   18  A    between atoms: _41  and  _42
REMARK   19  A    between atoms: _45  and  _47
REMARK   20  A    between atoms: _47  and  _48
REMARK   21  A    between atoms: _47  and  _50
REMARK   22  A    between atoms: _50  and  _51
REMARK   23  A    between atoms: _54  and  _56
REMARK   24  A    between atoms: _56  and  _57
REMARK   25  A    between atoms: _59  and  _61
REMARK   26  A    between atoms: _61  and  _62
REMARK   27  A    between atoms: _65  and  _67
REMARK   28  A    between atoms: _67  and  _68
REMARK   29  A    between atoms: _67  and  _70
REMARK   30  A    between atoms: _70  and  _71
REMARK   31  A    between atoms: _74  and  _76
REMARK   32  A    between atoms: _76  and  _77
REMARK   33  A    between atoms: _76  and  _79
REMARK   34  A    between atoms: _79  and  _80
REMARK   35  A    between atoms: _83  and  _85
REMARK   36  A    between atoms: _85  and  _86
REMARK   37  A    between atoms: _85  and  _88
REMARK   38  A    between atoms: _88  and  _89
REMARK   39  A    between atoms: _92  and  _94
REMARK   40  A    between atoms: _94  and  _95
REMARK   41  A    between atoms: _94  and  _97
REMARK   42  A    between atoms: _100  and  _102
REMARK   43  A    between atoms: _102  and  _103
REMARK   44  A    between atoms: _102  and  _105
REMARK   45  A    between atoms: _105  and  _106
REMARK   46  A    between atoms: _109  and  _111
REMARK   47  A    between atoms: _111  and  _112
REMARK   48  A    between atoms: _111  and  _114
REMARK   49  A    between atoms: _114  and  _115
REMARK   50  A    between atoms: _115  and  _116
REMARK   51  A    between atoms: _118  and  _120
REMARK   52  A    between atoms: _120  and  _121
REMARK   53  A    between atoms: _120  and  _123
REMARK   54  A    between atoms: _123  and  _124
REMARK   55  A    between atoms: _127  and  _129
REMARK   56  A    between atoms: _129  and  _130
REMARK   57  A    between atoms: _132  and  _134
REMARK   58  A    between atoms: _134  and  _135
REMARK   59  A    between atoms: _137  and  _139
REMARK   60  A    between atoms: _139  and  _140
REMARK   61  A    between atoms: _139  and  _142
REMARK   62  A    between atoms: _142  and  _143
REMARK   63  A    between atoms: _146  and  _148
REMARK   64  A    between atoms: _148  and  _149
REMARK   65  A    between atoms: _151  and  _153
REMARK   66  A    between atoms: _153  and  _154
REMARK   67  A    between atoms: _156  and  _158
REMARK   68  A    between atoms: _158  and  _159
REMARK   69  A    between atoms: _158  and  _161
REMARK   70  A    between atoms: _161  and  _162
REMARK   71  A    between atoms: _165  and  _167
REMARK   72  A    between atoms: _167  and  _168
REMARK   73  A    between atoms: _167  and  _170
REMARK   74  A    between atoms: _173  and  _175
REMARK   75  A    between atoms: _175  and  _176
REMARK   76  A    between atoms: _175  and  _178
REMARK   77  A    between atoms: _178  and  _179
REMARK   78  A    between atoms: _183  and  _184
REMARK   79  A    between atoms: _189  and  _191
REMARK   80  A    between atoms: _191  and  _192
REMARK   81  A    between atoms: _191  and  _194
REMARK   82  A    between atoms: _194  and  _195
REMARK   83  A    between atoms: _199  and  _200
REMARK   84  A    between atoms: _205  and  _207
REMARK   85  A    between atoms: _207  and  _208
REMARK   86  A    between atoms: _207  and  _210
REMARK   87  A    between atoms: _213  and  _215
REMARK   88  A    between atoms: _215  and  _216
REMARK   89  A    between atoms: _215  and  _218
REMARK   90  A    between atoms: _218  and  _219
REMARK   91  A    between atoms: _224  and  _226
REMARK   92  A    between atoms: _226  and  _227
REMARK   93  A    between atoms: _226  and  _229
REMARK   94  A    between atoms: _229  and  _230
REMARK   95  A    between atoms: _233  and  _235
REMARK   96  A    between atoms: _235  and  _236
REMARK   97  A    between atoms: _235  and  _238
REMARK   98  A    between atoms: _238  and  _239
REMARK   99  A    between atoms: _242  and  _244
REMARK  100  A    between atoms: _244  and  _245
REMARK  101  A    between atoms: _247  and  _249
REMARK  102  A    between atoms: _249  and  _250
REMARK  103  A    between atoms: _249  and  _252
REMARK  104  A    between atoms: _252  and  _253
REMARK  105  A    between atoms: _253  and  _254
REMARK  106  A    between atoms: _254  and  _255
REMARK  107  A    between atoms: _264  and  _266
REMARK  108  A    between atoms: _266  and  _267
REMARK  109  A    between atoms: _266  and  _269
REMARK  110  A    between atoms: _269  and  _270
REMARK  111  A    between atoms: _275  and  _277
REMARK  112  A    between atoms: _277  and  _278
REMARK  113  A    between atoms: _277  and  _280
REMARK  114  A    between atoms: _280  and  _281
REMARK  115  A    between atoms: _281  and  _282
REMARK  116  A    between atoms: _282  and  _283
REMARK  117  A    between atoms: _292  and  _294
REMARK  118  A    between atoms: _294  and  _295
REMARK  119  A    between atoms: _294  and  _297
REMARK  120  A    between atoms: _297  and  _298
REMARK  121  A    between atoms: _301  and  _303
REMARK  122  A    between atoms: _303  and  _304
REMARK  123  A    between atoms: _303  and  _306
REMARK  124  A    between atoms: _306  and  _307
REMARK  125  A    between atoms: _310  and  _312
REMARK  126  A    between atoms: _312  and  _313
REMARK  127  A    between atoms: _312  and  _315
REMARK  128  A    between atoms: _315  and  _316
REMARK  129  A    between atoms: _319  and  _321
REMARK  130  A    between atoms: _321  and  _322
REMARK  131  A    between atoms: _321  and  _324
REMARK  132  A    between atoms: _324  and  _325
REMARK  133  A    between atoms: _328  and  _330
REMARK  134  A    between atoms: _330  and  _331
REMARK  135  A    between atoms: _333  and  _335
REMARK  136  A    between atoms: _335  and  _336
REMARK  137  A    between atoms: _339  and  _341
REMARK  138  A    between atoms: _341  and  _342
REMARK  139  A    between atoms: _341  and  _344
REMARK  140  A    between atoms: _344  and  _345
REMARK  141  A    between atoms: _348  and  _350
REMARK  142  A    between atoms: _350  and  _351
REMARK  143  A    between atoms: _350  and  _353
REMARK  144  A    between atoms: _353  and  _354
REMARK  145  A    between atoms: _357  and  _359
REMARK  146  A    between atoms: _359  and  _360
REMARK  147  A    between atoms: _359  and  _362
REMARK  148  A    between atoms: _362  and  _363
REMARK  149  A    between atoms: _366  and  _368
REMARK  150  A    between atoms: _368  and  _369
REMARK  151  A    between atoms: _368  and  _371
REMARK  152  A    between atoms: _374  and  _376
REMARK  153  A    between atoms: _376  and  _377
REMARK  154  A    between atoms: _376  and  _379
REMARK  155  A    between atoms: _379  and  _380
REMARK  156  A    between atoms: _380  and  _381
REMARK  157  A    between atoms: _381  and  _382
REMARK  158  A    between atoms: _382  and  _383
REMARK  159  A    between atoms: _387  and  _389
REMARK  160  A    between atoms: _389  and  _390
REMARK  161  A    between atoms: _389  and  _392
REMARK  162  A    between atoms: _392  and  _393
REMARK  163  A    between atoms: _393  and  _394
REMARK  164  A    between atoms: _396  and  _398
REMARK  165  A    between atoms: _398  and  _399
REMARK  166  A    between atoms: _398  and  _401
REMARK  167  A    between atoms: _401  and  _402
REMARK  168  A    between atoms: _405  and  _407
REMARK  169  A    between atoms: _407  and  _408
REMARK  170  A    between atoms: _410  and  _412
REMARK  171  A    between atoms: _412  and  _413
REMARK  172  A    between atoms: _415  and  _417
REMARK  173  A    between atoms: _417  and  _418
REMARK  174  A    between atoms: _417  and  _420
REMARK  175  A    between atoms: _420  and  _421
REMARK  176  A    between atoms: _424  and  _426
REMARK  177  A    between atoms: _426  and  _427
REMARK  178  A    between atoms: _429  and  _431
REMARK  179  A    between atoms: _431  and  _432
REMARK  180  A    between atoms: _434  and  _436
REMARK  181  A    between atoms: _436  and  _437
REMARK  182  A    between atoms: _436  and  _439
REMARK  183  A    between atoms: _439  and  _440
REMARK  184  A    between atoms: _446  and  _448
REMARK  185  A    between atoms: _448  and  _449
REMARK  186  A    between atoms: _448  and  _451
REMARK  187  A    between atoms: _451  and  _452
REMARK  188  A    between atoms: _455  and  _457
REMARK  189  A    between atoms: _457  and  _458
REMARK  190  A    between atoms: _457  and  _460
REMARK  191  A    between atoms: _460  and  _461
REMARK  192  A    between atoms: _464  and  _466
REMARK  193  A    between atoms: _466  and  _467
REMARK  194  A    between atoms: _466  and  _469
REMARK  195  A    between atoms: _469  and  _470
REMARK  196  A    between atoms: _474  and  _475
REMARK  197  A    between atoms: _480  and  _482
REMARK  198  A    between atoms: _482  and  _483
REMARK  199  A    between atoms: _482  and  _485
REMARK  200  A    between atoms: _488  and  _490
REMARK  201  A    between atoms: _490  and  _491
REMARK  202  A    between atoms: _490  and  _493
REMARK  203  A    between atoms: _493  and  _494
REMARK  204  A    between atoms: _499  and  _501
REMARK  205  A    between atoms: _501  and  _502
REMARK  206  A    between atoms: _501  and  _504
REMARK  207  A    between atoms: _504  and  _505
REMARK  208  A    between atoms: _508  and  _510
REMARK  209  A    between atoms: _510  and  _511
REMARK  210  A    between atoms: _510  and  _513
REMARK  211  A    between atoms: _513  and  _514
REMARK  212  A    between atoms: _517  and  _519
REMARK  213  A    between atoms: _519  and  _520
REMARK  214  A    between atoms: _522  and  _524
REMARK  215  A    between atoms: _524  and  _525
REMARK  216  A    between atoms: _524  and  _527
REMARK  217  A    between atoms: _527  and  _528
REMARK  218  A    between atoms: _528  and  _529
REMARK  219  A    between atoms: _529  and  _530
REMARK  220  A    between atoms: _539  and  _541
REMARK  221  A    between atoms: _541  and  _542
REMARK  222  A    between atoms: _541  and  _544
REMARK  223  A    between atoms: _544  and  _545
REMARK                            x       y       z     vdW  Elec       q    Type
REMARK                         _______ _______ _______ _____ _____    ______ ____
ROOT
ATOM      1  O   HOH     1      20.288  32.523  23.409  0.00  0.00    +0.000 OA
ENDROOT
TORSDOF 0
REMARK  Name = ../refined-set-2016/2qi0/2qi0_pocket.pdb
REMARK  223 active torsions:
REMARK  status: ('A' for Active; 'I' for Inactive)
REMARK    1  A    between atoms: _1  and  _3
REMARK    2  A    between atoms: _3  and  _4
REMARK    3  A    between atoms: _3  and  _6
REMARK    4  A    between atoms: _6  and  _7
REMARK    5  A    between atoms: _7  and  _8
REMARK    6  A    between atoms: _8  and  _9
REMARK    7  A    between atoms: _18  and  _20
REMARK    8  A    between atoms: _20  and  _21
REMARK    9  A    between atoms: _20  and  _23
REMARK   10  A    between atoms: _23  and  _24
REMARK   11  A    between atoms: _27  and  _29
REMARK   12  A    between atoms: _29  and  _30
REMARK   13  A    between atoms: _29  and  _32
REMARK   14  A    between atoms: _32  and  _33
REMARK   15  A    between atoms: _36  and  _38
REMARK   16  A    between atoms: _38  and  _39
REMARK   17  A    between atoms: _38  and  _41
REMARK   18  A    between atoms: _41  and  _42
REMARK   19  A    between atoms: _45  and  _47
REMARK   20  A    between atoms: _47  and  _48
REMARK   21  A    between atoms: _47  and  _50
REMARK   22  A    between atoms: _50  and  _51
REMARK   23  A    between atoms: _54  and  _56
REMARK   24  A    between atoms: _56  and  _57
REMARK   25  A    between atoms: _59  and  _61
REMARK   26  A    between atoms: _61  and  _62
REMARK   27  A    between atoms: _65  and  _67
REMARK   28  A    between atoms: _67  and  _68
REMARK   29  A    between atoms: _67  and  _70
REMARK   30  A    between atoms: _70  and  _71
REMARK   31  A    between atoms: _74  and  _76
REMARK   32  A    between atoms: _76  and  _77
REMARK   33  A    between atoms: _76  and  _79
REMARK   34  A    between atoms: _79  and  _80
REMARK   35  A    between atoms: _83  and  _85
REMARK   36  A    between atoms: _85  and  _86
REMARK   37  A    between atoms: _85  and  _88
REMARK   38  A    between atoms: _88  and  _89
REMARK   39  A    between atoms: _92  and  _94
REMARK   40  A    between atoms: _94  and  _95
REMARK   41  A    between atoms: _94  and  _97
REMARK   42  A    between atoms: _100  and  _102
REMARK   43  A    between atoms: _102  and  _103
REMARK   44  A    between atoms: _102  and  _105
REMARK   45  A    between atoms: _105  and  _106
REMARK   46  A    between atoms: _109  and  _111
REMARK   47  A    between atoms: _111  and  _112
REMARK   48  A    between atoms: _111  and  _114
REMARK   49  A    between atoms: _114  and  _115
REMARK   50  A    between atoms: _115  and  _116
REMARK   51  A    between atoms: _118  and  _120
REMARK   52  A    between atoms: _120  and  _121
REMARK   53  A    between atoms: _120  and  _123
REMARK   54  A    between atoms: _123  and  _124
REMARK   55  A    between atoms: _127  and  _129
REMARK   56  A    between atoms: _129  and  _130
REMARK   57  A    between atoms: _132  and  _134
REMARK   58  A    between atoms: _134  and  _135
REMARK   59  A    between atoms: _137  and  _139
REMARK   60  A    between atoms: _139  and  _140
REMARK   61  A    between atoms: _139  and  _142
REMARK   62  A    between atoms: _142  and  _143
REMARK   63  A    between atoms: _146  and  _148
REMARK   64  A    between atoms: _148  and  _149
REMARK   65  A    between atoms: _151  and  _153
REMARK   66  A    between atoms: _153  and  _154
REMARK   67  A    between atoms: _156  and  _158
REMARK   68  A    between atoms: _158  and  _159
REMARK   69  A    between atoms: _158  and  _161
REMARK   70  A    between atoms: _161  and  _162
REMARK   71  A    between atoms: _165  and  _167
REMARK   72  A    between atoms: _167  and  _168
REMARK   73  A    between atoms: _167  and  _170
REMARK   74  A    between atoms: _173  and  _175
REMARK   75  A    between atoms: _175  and  _176
REMARK   76  A    between atoms: _175  and  _178
REMARK   77  A    between atoms: _178  and  _179
REMARK   78  A    between atoms: _183  and  _184
REMARK   79  A    between atoms: _189  and  _191
REMARK   80  A    between atoms: _191  and  _192
REMARK   81  A    between atoms: _191  and  _194
REMARK   82  A    between atoms: _194  and  _195
REMARK   83  A    between atoms: _199  and  _200
REMARK   84  A    between atoms: _205  and  _207
REMARK   85  A    between atoms: _207  and  _208
REMARK   86  A    between atoms: _207  and  _210
REMARK   87  A    between atoms: _213  and  _215
REMARK   88  A    between atoms: _215  and  _216
REMARK   89  A    between atoms: _215  and  _218
REMARK   90  A    between atoms: _218  and  _219
REMARK   91  A    between atoms: _224  and  _226
REMARK   92  A    between atoms: _226  and  _227
REMARK   93  A    between atoms: _226  and  _229
REMARK   94  A    between atoms: _229  and  _230
REMARK   95  A    between atoms: _233  and  _235
REMARK   96  A    between atoms: _235  and  _236
REMARK   97  A    between atoms: _235  and  _238
REMARK   98  A    between atoms: _238  and  _239
REMARK   99  A    between atoms: _242  and  _244
REMARK  100  A    between atoms: _244  and  _245
REMARK  101  A    between atoms: _247  and  _249
REMARK  102  A    between atoms: _249  and  _250
REMARK  103  A    between atoms: _249  and  _252
REMARK  104  A    between atoms: _252  and  _253
REMARK  105  A    between atoms: _253  and  _254
REMARK  106  A    between atoms: _254  and  _255
REMARK  107  A    between atoms: _264  and  _266
REMARK  108  A    between atoms: _266  and  _267
REMARK  109  A    between atoms: _266  and  _269
REMARK  110  A    between atoms: _269  and  _270
REMARK  111  A    between atoms: _275  and  _277
REMARK  112  A    between atoms: _277  and  _278
REMARK  113  A    between atoms: _277  and  _280
REMARK  114  A    between atoms: _280  and  _281
REMARK  115  A    between atoms: _281  and  _282
REMARK  116  A    between atoms: _282  and  _283
REMARK  117  A    between atoms: _292  and  _294
REMARK  118  A    between atoms: _294  and  _295
REMARK  119  A    between atoms: _294  and  _297
REMARK  120  A    between atoms: _297  and  _298
REMARK  121  A    between atoms: _301  and  _303
REMARK  122  A    between atoms: _303  and  _304
REMARK  123  A    between atoms: _303  and  _306
REMARK  124  A    between atoms: _306  and  _307
REMARK  125  A    between atoms: _310  and  _312
REMARK  126  A    between atoms: _312  and  _313
REMARK  127  A    between atoms: _312  and  _315
REMARK  128  A    between atoms: _315  and  _316
REMARK  129  A    between atoms: _319  and  _321
REMARK  130  A    between atoms: _321  and  _322
REMARK  131  A    between atoms: _321  and  _324
REMARK  132  A    between atoms: _324  and  _325
REMARK  133  A    between atoms: _328  and  _330
REMARK  134  A    between atoms: _330  and  _331
REMARK  135  A    between atoms: _333  and  _335
REMARK  136  A    between atoms: _335  and  _336
REMARK  137  A    between atoms: _339  and  _341
REMARK  138  A    between atoms: _341  and  _342
REMARK  139  A    between atoms: _341  and  _344
REMARK  140  A    between atoms: _344  and  _345
REMARK  141  A    between atoms: _348  and  _350
REMARK  142  A    between atoms: _350  and  _351
REMARK  143  A    between atoms: _350  and  _353
REMARK  144  A    between atoms: _353  and  _354
REMARK  145  A    between atoms: _357  and  _359
REMARK  146  A    between atoms: _359  and  _360
REMARK  147  A    between atoms: _359  and  _362
REMARK  148  A    between atoms: _362  and  _363
REMARK  149  A    between atoms: _366  and  _368
REMARK  150  A    between atoms: _368  and  _369
REMARK  151  A    between atoms: _368  and  _371
REMARK  152  A    between atoms: _374  and  _376
REMARK  153  A    between atoms: _376  and  _377
REMARK  154  A    between atoms: _376  and  _379
REMARK  155  A    between atoms: _379  and  _380
REMARK  156  A    between atoms: _380  and  _381
REMARK  157  A    between atoms: _381  and  _382
REMARK  158  A    between atoms: _382  and  _383
REMARK  159  A    between atoms: _387  and  _389
REMARK  160  A    between atoms: _389  and  _390
REMARK  161  A    between atoms: _389  and  _392
REMARK  162  A    between atoms: _392  and  _393
REMARK  163  A    between atoms: _393  and  _394
REMARK  164  A    between atoms: _396  and  _398
REMARK  165  A    between atoms: _398  and  _399
REMARK  166  A    between atoms: _398  and  _401
REMARK  167  A    between atoms: _401  and  _402
REMARK  168  A    between atoms: _405  and  _407
REMARK  169  A    between atoms: _407  and  _408
REMARK  170  A    between atoms: _410  and  _412
REMARK  171  A    between atoms: _412  and  _413
REMARK  172  A    between atoms: _415  and  _417
REMARK  173  A    between atoms: _417  and  _418
REMARK  174  A    between atoms: _417  and  _420
REMARK  175  A    between atoms: _420  and  _421
REMARK  176  A    between atoms: _424  and  _426
REMARK  177  A    between atoms: _426  and  _427
REMARK  178  A    between atoms: _429  and  _431
REMARK  179  A    between atoms: _431  and  _432
REMARK  180  A    between atoms: _434  and  _436
REMARK  181  A    between atoms: _436  and  _437
REMARK  182  A    between atoms: _436  and  _439
REMARK  183  A    between atoms: _439  and  _440
REMARK  184  A    between atoms: _446  and  _448
REMARK  185  A    between atoms: _448  and  _449
REMARK  186  A    between atoms: _448  and  _451
REMARK  187  A    between atoms: _451  and  _452
REMARK  188  A    between atoms: _455  and  _457
REMARK  189  A    between atoms: _457  and  _458
REMARK  190  A    between atoms: _457  and  _460
REMARK  191  A    between atoms: _460  and  _461
REMARK  192  A    between atoms: _464  and  _466
REMARK  193  A    between atoms: _466  and  _467
REMARK  194  A    between atoms: _466  and  _469
REMARK  195  A    between atoms: _469  and  _470
REMARK  196  A    between atoms: _474  and  _475
REMARK  197  A    between atoms: _480  and  _482
REMARK  198  A    between atoms: _482  and  _483
REMARK  199  A    between atoms: _482  and  _485
REMARK  200  A    between atoms: _488  and  _490
REMARK  201  A    between atoms: _490  and  _491
REMARK  202  A    between atoms: _490  and  _493
REMARK  203  A    between atoms: _493  and  _494
REMARK  204  A    between atoms: _499  and  _501
REMARK  205  A    between atoms: _501  and  _502
REMARK  206  A    between atoms: _501  and  _504
REMARK  207  A    between atoms: _504  and  _505
REMARK  208  A    between atoms: _508  and  _510
REMARK  209  A    between atoms: _510  and  _511
REMARK  210  A    between atoms: _510  and  _513
REMARK  211  A    between atoms: _513  and  _514
REMARK  212  A    between atoms: _517  and  _519
REMARK  213  A    between atoms: _519  and  _520
REMARK  214  A    between atoms: _522  and  _524
REMARK  215  A    between atoms: _524  and  _525
REMARK  216  A    between atoms: _524  and  _527
REMARK  217  A    between atoms: _527  and  _528
REMARK  218  A    between atoms: _528  and  _529
REMARK  219  A    between atoms: _529  and  _530
REMARK  220  A    between atoms: _539  and  _541
REMARK  221  A    between atoms: _541  and  _542
REMARK  222  A    between atoms: _541  and  _544
REMARK  223  A    between atoms: _544  and  _545
REMARK                            x       y       z     vdW  Elec       q    Type
REMARK                         _______ _______ _______ _____ _____    ______ ____
ROOT
ATOM      1  O   HOH     1      20.800  34.572  21.481  0.00  0.00    +0.000 OA
ENDROOT
TORSDOF 0
REMARK  Name = ../refined-set-2016/2qi0/2qi0_pocket.pdb
REMARK  223 active torsions:
REMARK  status: ('A' for Active; 'I' for Inactive)
REMARK    1  A    between atoms: _1  and  _3
REMARK    2  A    between atoms: _3  and  _4
REMARK    3  A    between atoms: _3  and  _6
REMARK    4  A    between atoms: _6  and  _7
REMARK    5  A    between atoms: _7  and  _8
REMARK    6  A    between atoms: _8  and  _9
REMARK    7  A    between atoms: _18  and  _20
REMARK    8  A    between atoms: _20  and  _21
REMARK    9  A    between atoms: _20  and  _23
REMARK   10  A    between atoms: _23  and  _24
REMARK   11  A    between atoms: _27  and  _29
REMARK   12  A    between atoms: _29  and  _30
REMARK   13  A    between atoms: _29  and  _32
REMARK   14  A    between atoms: _32  and  _33
REMARK   15  A    between atoms: _36  and  _38
REMARK   16  A    between atoms: _38  and  _39
REMARK   17  A    between atoms: _38  and  _41
REMARK   18  A    between atoms: _41  and  _42
REMARK   19  A    between atoms: _45  and  _47
REMARK   20  A    between atoms: _47  and  _48
REMARK   21  A    between atoms: _47  and  _50
REMARK   22  A    between atoms: _50  and  _51
REMARK   23  A    between atoms: _54  and  _56
REMARK   24  A    between atoms: _56  and  _57
REMARK   25  A    between atoms: _59  and  _61
REMARK   26  A    between atoms: _61  and  _62
REMARK   27  A    between atoms: _65  and  _67
REMARK   28  A    between atoms: _67  and  _68
REMARK   29  A    between atoms: _67  and  _70
REMARK   30  A    between atoms: _70  and  _71
REMARK   31  A    between atoms: _74  and  _76
REMARK   32  A    between atoms: _76  and  _77
REMARK   33  A    between atoms: _76  and  _79
REMARK   34  A    between atoms: _79  and  _80
REMARK   35  A    between atoms: _83  and  _85
REMARK   36  A    between atoms: _85  and  _86
REMARK   37  A    between atoms: _85  and  _88
REMARK   38  A    between atoms: _88  and  _89
REMARK   39  A    between atoms: _92  and  _94
REMARK   40  A    between atoms: _94  and  _95
REMARK   41  A    between atoms: _94  and  _97
REMARK   42  A    between atoms: _100  and  _102
REMARK   43  A    between atoms: _102  and  _103
REMARK   44  A    between atoms: _102  and  _105
REMARK   45  A    between atoms: _105  and  _106
REMARK   46  A    between atoms: _109  and  _111
REMARK   47  A    between atoms: _111  and  _112
REMARK   48  A    between atoms: _111  and  _114
REMARK   49  A    between atoms: _114  and  _115
REMARK   50  A    between atoms: _115  and  _116
REMARK   51  A    between atoms: _118  and  _120
REMARK   52  A    between atoms: _120  and  _121
REMARK   53  A    between atoms: _120  and  _123
REMARK   54  A    between atoms: _123  and  _124
REMARK   55  A    between atoms: _127  and  _129
REMARK   56  A    between atoms: _129  and  _130
REMARK   57  A    between atoms: _132  and  _134
REMARK   58  A    between atoms: _134  and  _135
REMARK   59  A    between atoms: _137  and  _139
REMARK   60  A    between atoms: _139  and  _140
REMARK   61  A    between atoms: _139  and  _142
REMARK   62  A    between atoms: _142  and  _143
REMARK   63  A    between atoms: _146  and  _148
REMARK   64  A    between atoms: _148  and  _149
REMARK   65  A    between atoms: _151  and  _153
REMARK   66  A    between atoms: _153  and  _154
REMARK   67  A    between atoms: _156  and  _158
REMARK   68  A    between atoms: _158  and  _159
REMARK   69  A    between atoms: _158  and  _161
REMARK   70  A    between atoms: _161  and  _162
REMARK   71  A    between atoms: _165  and  _167
REMARK   72  A    between atoms: _167  and  _168
REMARK   73  A    between atoms: _167  and  _170
REMARK   74  A    between atoms: _173  and  _175
REMARK   75  A    between atoms: _175  and  _176
REMARK   76  A    between atoms: _175  and  _178
REMARK   77  A    between atoms: _178  and  _179
REMARK   78  A    between atoms: _183  and  _184
REMARK   79  A    between atoms: _189  and  _191
REMARK   80  A    between atoms: _191  and  _192
REMARK   81  A    between atoms: _191  and  _194
REMARK   82  A    between atoms: _194  and  _195
REMARK   83  A    between atoms: _199  and  _200
REMARK   84  A    between atoms: _205  and  _207
REMARK   85  A    between atoms: _207  and  _208
REMARK   86  A    between atoms: _207  and  _210
REMARK   87  A    between atoms: _213  and  _215
REMARK   88  A    between atoms: _215  and  _216
REMARK   89  A    between atoms: _215  and  _218
REMARK   90  A    between atoms: _218  and  _219
REMARK   91  A    between atoms: _224  and  _226
REMARK   92  A    between atoms: _226  and  _227
REMARK   93  A    between atoms: _226  and  _229
REMARK   94  A    between atoms: _229  and  _230
REMARK   95  A    between atoms: _233  and  _235
REMARK   96  A    between atoms: _235  and  _236
REMARK   97  A    between atoms: _235  and  _238
REMARK   98  A    between atoms: _238  and  _239
REMARK   99  A    between atoms: _242  and  _244
REMARK  100  A    between atoms: _244  and  _245
REMARK  101  A    between atoms: _247  and  _249
REMARK  102  A    between atoms: _249  and  _250
REMARK  103  A    between atoms: _249  and  _252
REMARK  104  A    between atoms: _252  and  _253
REMARK  105  A    between atoms: _253  and  _254
REMARK  106  A    between atoms: _254  and  _255
REMARK  107  A    between atoms: _264  and  _266
REMARK  108  A    between atoms: _266  and  _267
REMARK  109  A    between atoms: _266  and  _269
REMARK  110  A    between atoms: _269  and  _270
REMARK  111  A    between atoms: _275  and  _277
REMARK  112  A    between atoms: _277  and  _278
REMARK  113  A    between atoms: _277  and  _280
REMARK  114  A    between atoms: _280  and  _281
REMARK  115  A    between atoms: _281  and  _282
REMARK  116  A    between atoms: _282  and  _283
REMARK  117  A    between atoms: _292  and  _294
REMARK  118  A    between atoms: _294  and  _295
REMARK  119  A    between atoms: _294  and  _297
REMARK  120  A    between atoms: _297  and  _298
REMARK  121  A    between atoms: _301  and  _303
REMARK  122  A    between atoms: _303  and  _304
REMARK  123  A    between atoms: _303  and  _306
REMARK  124  A    between atoms: _306  and  _307
REMARK  125  A    between atoms: _310  and  _312
REMARK  126  A    between atoms: _312  and  _313
REMARK  127  A    between atoms: _312  and  _315
REMARK  128  A    between atoms: _315  and  _316
REMARK  129  A    between atoms: _319  and  _321
REMARK  130  A    between atoms: _321  and  _322
REMARK  131  A    between atoms: _321  and  _324
REMARK  132  A    between atoms: _324  and  _325
REMARK  133  A    between atoms: _328  and  _330
REMARK  134  A    between atoms: _330  and  _331
REMARK  135  A    between atoms: _333  and  _335
REMARK  136  A    between atoms: _335  and  _336
REMARK  137  A    between atoms: _339  and  _341
REMARK  138  A    between atoms: _341  and  _342
REMARK  139  A    between atoms: _341  and  _344
REMARK  140  A    between atoms: _344  and  _345
REMARK  141  A    between atoms: _348  and  _350
REMARK  142  A    between atoms: _350  and  _351
REMARK  143  A    between atoms: _350  and  _353
REMARK  144  A    between atoms: _353  and  _354
REMARK  145  A    between atoms: _357  and  _359
REMARK  146  A    between atoms: _359  and  _360
REMARK  147  A    between atoms: _359  and  _362
REMARK  148  A    between atoms: _362  and  _363
REMARK  149  A    between atoms: _366  and  _368
REMARK  150  A    between atoms: _368  and  _369
REMARK  151  A    between atoms: _368  and  _371
REMARK  152  A    between atoms: _374  and  _376
REMARK  153  A    between atoms: _376  and  _377
REMARK  154  A    between atoms: _376  and  _379
REMARK  155  A    between atoms: _379  and  _380
REMARK  156  A    between atoms: _380  and  _381
REMARK  157  A    between atoms: _381  and  _382
REMARK  158  A    between atoms: _382  and  _383
REMARK  159  A    between atoms: _387  and  _389
REMARK  160  A    between atoms: _389  and  _390
REMARK  161  A    between atoms: _389  and  _392
REMARK  162  A    between atoms: _392  and  _393
REMARK  163  A    between atoms: _393  and  _394
REMARK  164  A    between atoms: _396  and  _398
REMARK  165  A    between atoms: _398  and  _399
REMARK  166  A    between atoms: _398  and  _401
REMARK  167  A    between atoms: _401  and  _402
REMARK  168  A    between atoms: _405  and  _407
REMARK  169  A    between atoms: _407  and  _408
REMARK  170  A    between atoms: _410  and  _412
REMARK  171  A    between atoms: _412  and  _413
REMARK  172  A    between atoms: _415  and  _417
REMARK  173  A    between atoms: _417  and  _418
REMARK  174  A    between atoms: _417  and  _420
REMARK  175  A    between atoms: _420  and  _421
REMARK  176  A    between atoms: _424  and  _426
REMARK  177  A    between atoms: _426  and  _427
REMARK  178  A    between atoms: _429  and  _431
REMARK  179  A    between atoms: _431  and  _432
REMARK  180  A    between atoms: _434  and  _436
REMARK  181  A    between atoms: _436  and  _437
REMARK  182  A    between atoms: _436  and  _439
REMARK  183  A    between atoms: _439  and  _440
REMARK  184  A    between atoms: _446  and  _448
REMARK  185  A    between atoms: _448  and  _449
REMARK  186  A    between atoms: _448  and  _451
REMARK  187  A    between atoms: _451  and  _452
REMARK  188  A    between atoms: _455  and  _457
REMARK  189  A    between atoms: _457  and  _458
REMARK  190  A    between atoms: _457  and  _460
REMARK  191  A    between atoms: _460  and  _461
REMARK  192  A    between atoms: _464  and  _466
REMARK  193  A    between atoms: _466  and  _467
REMARK  194  A    between atoms: _466  and  _469
REMARK  195  A    between atoms: _469  and  _470
REMARK  196  A    between atoms: _474  and  _475
REMARK  197  A    between atoms: _480  and  _482
REMARK  198  A    between atoms: _482  and  _483
REMARK  199  A    between atoms: _482  and  _485
REMARK  200  A    between atoms: _488  and  _490
REMARK  201  A    between atoms: _490  and  _491
REMARK  202  A    between atoms: _490  and  _493
REMARK  203  A    between atoms: _493  and  _494
REMARK  204  A    between atoms: _499  and  _501
REMARK  205  A    between atoms: _501  and  _502
REMARK  206  A    between atoms: _501  and  _504
REMARK  207  A    between atoms: _504  and  _505
REMARK  208  A    between atoms: _508  and  _510
REMARK  209  A    between atoms: _510  and  _511
REMARK  210  A    between atoms: _510  and  _513
REMARK  211  A    between atoms: _513  and  _514
REMARK  212  A    between atoms: _517  and  _519
REMARK  213  A    between atoms: _519  and  _520
REMARK  214  A    between atoms: _522  and  _524
REMARK  215  A    between atoms: _524  and  _525
REMARK  216  A    between atoms: _524  and  _527
REMARK  217  A    between atoms: _527  and  _528
REMARK  218  A    between atoms: _528  and  _529
REMARK  219  A    between atoms: _529  and  _530
REMARK  220  A    between atoms: _539  and  _541
REMARK  221  A    between atoms: _541  and  _542
REMARK  222  A    between atoms: _541  and  _544
REMARK  223  A    between atoms: _544  and  _545
REMARK                            x       y       z     vdW  Elec       q    Type
REMARK                         _______ _______ _______ _____ _____    ______ ____
ROOT
ATOM      1  O   HOH     1      10.742  36.316  23.039  0.00  0.00    +0.000 OA
ENDROOT
TORSDOF 0
REMARK  Name = ../refined-set-2016/2qi0/2qi0_pocket.pdb
REMARK  223 active torsions:
REMARK  status: ('A' for Active; 'I' for Inactive)
REMARK    1  A    between atoms: _1  and  _3
REMARK    2  A    between atoms: _3  and  _4
REMARK    3  A    between atoms: _3  and  _6
REMARK    4  A    between atoms: _6  and  _7
REMARK    5  A    between atoms: _7  and  _8
REMARK    6  A    between atoms: _8  and  _9
REMARK    7  A    between atoms: _18  and  _20
REMARK    8  A    between atoms: _20  and  _21
REMARK    9  A    between atoms: _20  and  _23
REMARK   10  A    between atoms: _23  and  _24
REMARK   11  A    between atoms: _27  and  _29
REMARK   12  A    between atoms: _29  and  _30
REMARK   13  A    between atoms: _29  and  _32
REMARK   14  A    between atoms: _32  and  _33
REMARK   15  A    between atoms: _36  and  _38
REMARK   16  A    between atoms: _38  and  _39
REMARK   17  A    between atoms: _38  and  _41
REMARK   18  A    between atoms: _41  and  _42
REMARK   19  A    between atoms: _45  and  _47
REMARK   20  A    between atoms: _47  and  _48
REMARK   21  A    between atoms: _47  and  _50
REMARK   22  A    between atoms: _50  and  _51
REMARK   23  A    between atoms: _54  and  _56
REMARK   24  A    between atoms: _56  and  _57
REMARK   25  A    between atoms: _59  and  _61
REMARK   26  A    between atoms: _61  and  _62
REMARK   27  A    between atoms: _65  and  _67
REMARK   28  A    between atoms: _67  and  _68
REMARK   29  A    between atoms: _67  and  _70
REMARK   30  A    between atoms: _70  and  _71
REMARK   31  A    between atoms: _74  and  _76
REMARK   32  A    between atoms: _76  and  _77
REMARK   33  A    between atoms: _76  and  _79
REMARK   34  A    between atoms: _79  and  _80
REMARK   35  A    between atoms: _83  and  _85
REMARK   36  A    between atoms: _85  and  _86
REMARK   37  A    between atoms: _85  and  _88
REMARK   38  A    between atoms: _88  and  _89
REMARK   39  A    between atoms: _92  and  _94
REMARK   40  A    between atoms: _94  and  _95
REMARK   41  A    between atoms: _94  and  _97
REMARK   42  A    between atoms: _100  and  _102
REMARK   43  A    between atoms: _102  and  _103
REMARK   44  A    between atoms: _102  and  _105
REMARK   45  A    between atoms: _105  and  _106
REMARK   46  A    between atoms: _109  and  _111
REMARK   47  A    between atoms: _111  and  _112
REMARK   48  A    between atoms: _111  and  _114
REMARK   49  A    between atoms: _114  and  _115
REMARK   50  A    between atoms: _115  and  _116
REMARK   51  A    between atoms: _118  and  _120
REMARK   52  A    between atoms: _120  and  _121
REMARK   53  A    between atoms: _120  and  _123
REMARK   54  A    between atoms: _123  and  _124
REMARK   55  A    between atoms: _127  and  _129
REMARK   56  A    between atoms: _129  and  _130
REMARK   57  A    between atoms: _132  and  _134
REMARK   58  A    between atoms: _134  and  _135
REMARK   59  A    between atoms: _137  and  _139
REMARK   60  A    between atoms: _139  and  _140
REMARK   61  A    between atoms: _139  and  _142
REMARK   62  A    between atoms: _142  and  _143
REMARK   63  A    between atoms: _146  and  _148
REMARK   64  A    between atoms: _148  and  _149
REMARK   65  A    between atoms: _151  and  _153
REMARK   66  A    between atoms: _153  and  _154
REMARK   67  A    between atoms: _156  and  _158
REMARK   68  A    between atoms: _158  and  _159
REMARK   69  A    between atoms: _158  and  _161
REMARK   70  A    between atoms: _161  and  _162
REMARK   71  A    between atoms: _165  and  _167
REMARK   72  A    between atoms: _167  and  _168
REMARK   73  A    between atoms: _167  and  _170
REMARK   74  A    between atoms: _173  and  _175
REMARK   75  A    between atoms: _175  and  _176
REMARK   76  A    between atoms: _175  and  _178
REMARK   77  A    between atoms: _178  and  _179
REMARK   78  A    between atoms: _183  and  _184
REMARK   79  A    between atoms: _189  and  _191
REMARK   80  A    between atoms: _191  and  _192
REMARK   81  A    between atoms: _191  and  _194
REMARK   82  A    between atoms: _194  and  _195
REMARK   83  A    between atoms: _199  and  _200
REMARK   84  A    between atoms: _205  and  _207
REMARK   85  A    between atoms: _207  and  _208
REMARK   86  A    between atoms: _207  and  _210
REMARK   87  A    between atoms: _213  and  _215
REMARK   88  A    between atoms: _215  and  _216
REMARK   89  A    between atoms: _215  and  _218
REMARK   90  A    between atoms: _218  and  _219
REMARK   91  A    between atoms: _224  and  _226
REMARK   92  A    between atoms: _226  and  _227
REMARK   93  A    between atoms: _226  and  _229
REMARK   94  A    between atoms: _229  and  _230
REMARK   95  A    between atoms: _233  and  _235
REMARK   96  A    between atoms: _235  and  _236
REMARK   97  A    between atoms: _235  and  _238
REMARK   98  A    between atoms: _238  and  _239
REMARK   99  A    between atoms: _242  and  _244
REMARK  100  A    between atoms: _244  and  _245
REMARK  101  A    between atoms: _247  and  _249
REMARK  102  A    between atoms: _249  and  _250
REMARK  103  A    between atoms: _249  and  _252
REMARK  104  A    between atoms: _252  and  _253
REMARK  105  A    between atoms: _253  and  _254
REMARK  106  A    between atoms: _254  and  _255
REMARK  107  A    between atoms: _264  and  _266
REMARK  108  A    between atoms: _266  and  _267
REMARK  109  A    between atoms: _266  and  _269
REMARK  110  A    between atoms: _269  and  _270
REMARK  111  A    between atoms: _275  and  _277
REMARK  112  A    between atoms: _277  and  _278
REMARK  113  A    between atoms: _277  and  _280
REMARK  114  A    between atoms: _280  and  _281
REMARK  115  A    between atoms: _281  and  _282
REMARK  116  A    between atoms: _282  and  _283
REMARK  117  A    between atoms: _292  and  _294
REMARK  118  A    between atoms: _294  and  _295
REMARK  119  A    between atoms: _294  and  _297
REMARK  120  A    between atoms: _297  and  _298
REMARK  121  A    between atoms: _301  and  _303
REMARK  122  A    between atoms: _303  and  _304
REMARK  123  A    between atoms: _303  and  _306
REMARK  124  A    between atoms: _306  and  _307
REMARK  125  A    between atoms: _310  and  _312
REMARK  126  A    between atoms: _312  and  _313
REMARK  127  A    between atoms: _312  and  _315
REMARK  128  A    between atoms: _315  and  _316
REMARK  129  A    between atoms: _319  and  _321
REMARK  130  A    between atoms: _321  and  _322
REMARK  131  A    between atoms: _321  and  _324
REMARK  132  A    between atoms: _324  and  _325
REMARK  133  A    between atoms: _328  and  _330
REMARK  134  A    between atoms: _330  and  _331
REMARK  135  A    between atoms: _333  and  _335
REMARK  136  A    between atoms: _335  and  _336
REMARK  137  A    between atoms: _339  and  _341
REMARK  138  A    between atoms: _341  and  _342
REMARK  139  A    between atoms: _341  and  _344
REMARK  140  A    between atoms: _344  and  _345
REMARK  141  A    between atoms: _348  and  _350
REMARK  142  A    between atoms: _350  and  _351
REMARK  143  A    between atoms: _350  and  _353
REMARK  144  A    between atoms: _353  and  _354
REMARK  145  A    between atoms: _357  and  _359
REMARK  146  A    between atoms: _359  and  _360
REMARK  147  A    between atoms: _359  and  _362
REMARK  148  A    between atoms: _362  and  _363
REMARK  149  A    between atoms: _366  and  _368
REMARK  150  A    between atoms: _368  and  _369
REMARK  151  A    between atoms: _368  and  _371
REMARK  152  A    between atoms: _374  and  _376
REMARK  153  A    between atoms: _376  and  _377
REMARK  154  A    between atoms: _376  and  _379
REMARK  155  A    between atoms: _379  and  _380
REMARK  156  A    between atoms: _380  and  _381
REMARK  157  A    between atoms: _381  and  _382
REMARK  158  A    between atoms: _382  and  _383
REMARK  159  A    between atoms: _387  and  _389
REMARK  160  A    between atoms: _389  and  _390
REMARK  161  A    between atoms: _389  and  _392
REMARK  162  A    between atoms: _392  and  _393
REMARK  163  A    between atoms: _393  and  _394
REMARK  164  A    between atoms: _396  and  _398
REMARK  165  A    between atoms: _398  and  _399
REMARK  166  A    between atoms: _398  and  _401
REMARK  167  A    between atoms: _401  and  _402
REMARK  168  A    between atoms: _405  and  _407
REMARK  169  A    between atoms: _407  and  _408
REMARK  170  A    between atoms: _410  and  _412
REMARK  171  A    between atoms: _412  and  _413
REMARK  172  A    between atoms: _415  and  _417
REMARK  173  A    between atoms: _417  and  _418
REMARK  174  A    between atoms: _417  and  _420
REMARK  175  A    between atoms: _420  and  _421
REMARK  176  A    between atoms: _424  and  _426
REMARK  177  A    between atoms: _426  and  _427
REMARK  178  A    between atoms: _429  and  _431
REMARK  179  A    between atoms: _431  and  _432
REMARK  180  A    between atoms: _434  and  _436
REMARK  181  A    between atoms: _436  and  _437
REMARK  182  A    between atoms: _436  and  _439
REMARK  183  A    between atoms: _439  and  _440
REMARK  184  A    between atoms: _446  and  _448
REMARK  185  A    between atoms: _448  and  _449
REMARK  186  A    between atoms: _448  and  _451
REMARK  187  A    between atoms: _451  and  _452
REMARK  188  A    between atoms: _455  and  _457
REMARK  189  A    between atoms: _457  and  _458
REMARK  190  A    between atoms: _457  and  _460
REMARK  191  A    between atoms: _460  and  _461
REMARK  192  A    between atoms: _464  and  _466
REMARK  193  A    between atoms: _466  and  _467
REMARK  194  A    between atoms: _466  and  _469
REMARK  195  A    between atoms: _469  and  _470
REMARK  196  A    between atoms: _474  and  _475
REMARK  197  A    between atoms: _480  and  _482
REMARK  198  A    between atoms: _482  and  _483
REMARK  199  A    between atoms: _482  and  _485
REMARK  200  A    between atoms: _488  and  _490
REMARK  201  A    between atoms: _490  and  _491
REMARK  202  A    between atoms: _490  and  _493
REMARK  203  A    between atoms: _493  and  _494
REMARK  204  A    between atoms: _499  and  _501
REMARK  205  A    between atoms: _501  and  _502
REMARK  206  A    between atoms: _501  and  _504
REMARK  207  A    between atoms: _504  and  _505
REMARK  208  A    between atoms: _508  and  _510
REMARK  209  A    between atoms: _510  and  _511
REMARK  210  A    between atoms: _510  and  _513
REMARK  211  A    between atoms: _513  and  _514
REMARK  212  A    between atoms: _517  and  _519
REMARK  213  A    between atoms: _519  and  _520
REMARK  214  A    between atoms: _522  and  _524
REMARK  215  A    between atoms: _524  and  _525
REMARK  216  A    between atoms: _524  and  _527
REMARK  217  A    between atoms: _527  and  _528
REMARK  218  A    between atoms: _528  and  _529
REMARK  219  A    between atoms: _529  and  _530
REMARK  220  A    between atoms: _539  and  _541
REMARK  221  A    between atoms: _541  and  _542
REMARK  222  A    between atoms: _541  and  _544
REMARK  223  A    between atoms: _544  and  _545
REMARK                            x       y       z     vdW  Elec       q    Type
REMARK                         _______ _______ _______ _____ _____    ______ ____
ROOT
ATOM      1  O   HOH     1      18.466  34.942  19.330  0.00  0.00    +0.000 OA
ENDROOT
TORSDOF 0
REMARK  Name = ../refined-set-2016/2qi0/2qi0_pocket.pdb
REMARK  223 active torsions:
REMARK  status: ('A' for Active; 'I' for Inactive)
REMARK    1  A    between atoms: _1  and  _3
REMARK    2  A    between atoms: _3  and  _4
REMARK    3  A    between atoms: _3  and  _6
REMARK    4  A    between atoms: _6  and  _7
REMARK    5  A    between atoms: _7  and  _8
REMARK    6  A    between atoms: _8  and  _9
REMARK    7  A    between atoms: _18  and  _20
REMARK    8  A    between atoms: _20  and  _21
REMARK    9  A    between atoms: _20  and  _23
REMARK   10  A    between atoms: _23  and  _24
REMARK   11  A    between atoms: _27  and  _29
REMARK   12  A    between atoms: _29  and  _30
REMARK   13  A    between atoms: _29  and  _32
REMARK   14  A    between atoms: _32  and  _33
REMARK   15  A    between atoms: _36  and  _38
REMARK   16  A    between atoms: _38  and  _39
REMARK   17  A    between atoms: _38  and  _41
REMARK   18  A    between atoms: _41  and  _42
REMARK   19  A    between atoms: _45  and  _47
REMARK   20  A    between atoms: _47  and  _48
REMARK   21  A    between atoms: _47  and  _50
REMARK   22  A    between atoms: _50  and  _51
REMARK   23  A    between atoms: _54  and  _56
REMARK   24  A    between atoms: _56  and  _57
REMARK   25  A    between atoms: _59  and  _61
REMARK   26  A    between atoms: _61  and  _62
REMARK   27  A    between atoms: _65  and  _67
REMARK   28  A    between atoms: _67  and  _68
REMARK   29  A    between atoms: _67  and  _70
REMARK   30  A    between atoms: _70  and  _71
REMARK   31  A    between atoms: _74  and  _76
REMARK   32  A    between atoms: _76  and  _77
REMARK   33  A    between atoms: _76  and  _79
REMARK   34  A    between atoms: _79  and  _80
REMARK   35  A    between atoms: _83  and  _85
REMARK   36  A    between atoms: _85  and  _86
REMARK   37  A    between atoms: _85  and  _88
REMARK   38  A    between atoms: _88  and  _89
REMARK   39  A    between atoms: _92  and  _94
REMARK   40  A    between atoms: _94  and  _95
REMARK   41  A    between atoms: _94  and  _97
REMARK   42  A    between atoms: _100  and  _102
REMARK   43  A    between atoms: _102  and  _103
REMARK   44  A    between atoms: _102  and  _105
REMARK   45  A    between atoms: _105  and  _106
REMARK   46  A    between atoms: _109  and  _111
REMARK   47  A    between atoms: _111  and  _112
REMARK   48  A    between atoms: _111  and  _114
REMARK   49  A    between atoms: _114  and  _115
REMARK   50  A    between atoms: _115  and  _116
REMARK   51  A    between atoms: _118  and  _120
REMARK   52  A    between atoms: _120  and  _121
REMARK   53  A    between atoms: _120  and  _123
REMARK   54  A    between atoms: _123  and  _124
REMARK   55  A    between atoms: _127  and  _129
REMARK   56  A    between atoms: _129  and  _130
REMARK   57  A    between atoms: _132  and  _134
REMARK   58  A    between atoms: _134  and  _135
REMARK   59  A    between atoms: _137  and  _139
REMARK   60  A    between atoms: _139  and  _140
REMARK   61  A    between atoms: _139  and  _142
REMARK   62  A    between atoms: _142  and  _143
REMARK   63  A    between atoms: _146  and  _148
REMARK   64  A    between atoms: _148  and  _149
REMARK   65  A    between atoms: _151  and  _153
REMARK   66  A    between atoms: _153  and  _154
REMARK   67  A    between atoms: _156  and  _158
REMARK   68  A    between atoms: _158  and  _159
REMARK   69  A    between atoms: _158  and  _161
REMARK   70  A    between atoms: _161  and  _162
REMARK   71  A    between atoms: _165  and  _167
REMARK   72  A    between atoms: _167  and  _168
REMARK   73  A    between atoms: _167  and  _170
REMARK   74  A    between atoms: _173  and  _175
REMARK   75  A    between atoms: _175  and  _176
REMARK   76  A    between atoms: _175  and  _178
REMARK   77  A    between atoms: _178  and  _179
REMARK   78  A    between atoms: _183  and  _184
REMARK   79  A    between atoms: _189  and  _191
REMARK   80  A    between atoms: _191  and  _192
REMARK   81  A    between atoms: _191  and  _194
REMARK   82  A    between atoms: _194  and  _195
REMARK   83  A    between atoms: _199  and  _200
REMARK   84  A    between atoms: _205  and  _207
REMARK   85  A    between atoms: _207  and  _208
REMARK   86  A    between atoms: _207  and  _210
REMARK   87  A    between atoms: _213  and  _215
REMARK   88  A    between atoms: _215  and  _216
REMARK   89  A    between atoms: _215  and  _218
REMARK   90  A    between atoms: _218  and  _219
REMARK   91  A    between atoms: _224  and  _226
REMARK   92  A    between atoms: _226  and  _227
REMARK   93  A    between atoms: _226  and  _229
REMARK   94  A    between atoms: _229  and  _230
REMARK   95  A    between atoms: _233  and  _235
REMARK   96  A    between atoms: _235  and  _236
REMARK   97  A    between atoms: _235  and  _238
REMARK   98  A    between atoms: _238  and  _239
REMARK   99  A    between atoms: _242  and  _244
REMARK  100  A    between atoms: _244  and  _245
REMARK  101  A    between atoms: _247  and  _249
REMARK  102  A    between atoms: _249  and  _250
REMARK  103  A    between atoms: _249  and  _252
REMARK  104  A    between atoms: _252  and  _253
REMARK  105  A    between atoms: _253  and  _254
REMARK  106  A    between atoms: _254  and  _255
REMARK  107  A    between atoms: _264  and  _266
REMARK  108  A    between atoms: _266  and  _267
REMARK  109  A    between atoms: _266  and  _269
REMARK  110  A    between atoms: _269  and  _270
REMARK  111  A    between atoms: _275  and  _277
REMARK  112  A    between atoms: _277  and  _278
REMARK  113  A    between atoms: _277  and  _280
REMARK  114  A    between atoms: _280  and  _281
REMARK  115  A    between atoms: _281  and  _282
REMARK  116  A    between atoms: _282  and  _283
REMARK  117  A    between atoms: _292  and  _294
REMARK  118  A    between atoms: _294  and  _295
REMARK  119  A    between atoms: _294  and  _297
REMARK  120  A    between atoms: _297  and  _298
REMARK  121  A    between atoms: _301  and  _303
REMARK  122  A    between atoms: _303  and  _304
REMARK  123  A    between atoms: _303  and  _306
REMARK  124  A    between atoms: _306  and  _307
REMARK  125  A    between atoms: _310  and  _312
REMARK  126  A    between atoms: _312  and  _313
REMARK  127  A    between atoms: _312  and  _315
REMARK  128  A    between atoms: _315  and  _316
REMARK  129  A    between atoms: _319  and  _321
REMARK  130  A    between atoms: _321  and  _322
REMARK  131  A    between atoms: _321  and  _324
REMARK  132  A    between atoms: _324  and  _325
REMARK  133  A    between atoms: _328  and  _330
REMARK  134  A    between atoms: _330  and  _331
REMARK  135  A    between atoms: _333  and  _335
REMARK  136  A    between atoms: _335  and  _336
REMARK  137  A    between atoms: _339  and  _341
REMARK  138  A    between atoms: _341  and  _342
REMARK  139  A    between atoms: _341  and  _344
REMARK  140  A    between atoms: _344  and  _345
REMARK  141  A    between atoms: _348  and  _350
REMARK  142  A    between atoms: _350  and  _351
REMARK  143  A    between atoms: _350  and  _353
REMARK  144  A    between atoms: _353  and  _354
REMARK  145  A    between atoms: _357  and  _359
REMARK  146  A    between atoms: _359  and  _360
REMARK  147  A    between atoms: _359  and  _362
REMARK  148  A    between atoms: _362  and  _363
REMARK  149  A    between atoms: _366  and  _368
REMARK  150  A    between atoms: _368  and  _369
REMARK  151  A    between atoms: _368  and  _371
REMARK  152  A    between atoms: _374  and  _376
REMARK  153  A    between atoms: _376  and  _377
REMARK  154  A    between atoms: _376  and  _379
REMARK  155  A    between atoms: _379  and  _380
REMARK  156  A    between atoms: _380  and  _381
REMARK  157  A    between atoms: _381  and  _382
REMARK  158  A    between atoms: _382  and  _383
REMARK  159  A    between atoms: _387  and  _389
REMARK  160  A    between atoms: _389  and  _390
REMARK  161  A    between atoms: _389  and  _392
REMARK  162  A    between atoms: _392  and  _393
REMARK  163  A    between atoms: _393  and  _394
REMARK  164  A    between atoms: _396  and  _398
REMARK  165  A    between atoms: _398  and  _399
REMARK  166  A    between atoms: _398  and  _401
REMARK  167  A    between atoms: _401  and  _402
REMARK  168  A    between atoms: _405  and  _407
REMARK  169  A    between atoms: _407  and  _408
REMARK  170  A    between atoms: _410  and  _412
REMARK  171  A    between atoms: _412  and  _413
REMARK  172  A    between atoms: _415  and  _417
REMARK  173  A    between atoms: _417  and  _418
REMARK  174  A    between atoms: _417  and  _420
REMARK  175  A    between atoms: _420  and  _421
REMARK  176  A    between atoms: _424  and  _426
REMARK  177  A    between atoms: _426  and  _427
REMARK  178  A    between atoms: _429  and  _431
REMARK  179  A    between atoms: _431  and  _432
REMARK  180  A    between atoms: _434  and  _436
REMARK  181  A    between atoms: _436  and  _437
REMARK  182  A    between atoms: _436  and  _439
REMARK  183  A    between atoms: _439  and  _440
REMARK  184  A    between atoms: _446  and  _448
REMARK  185  A    between atoms: _448  and  _449
REMARK  186  A    between atoms: _448  and  _451
REMARK  187  A    between atoms: _451  and  _452
REMARK  188  A    between atoms: _455  and  _457
REMARK  189  A    between atoms: _457  and  _458
REMARK  190  A    between atoms: _457  and  _460
REMARK  191  A    between atoms: _460  and  _461
REMARK  192  A    between atoms: _464  and  _466
REMARK  193  A    between atoms: _466  and  _467
REMARK  194  A    between atoms: _466  and  _469
REMARK  195  A    between atoms: _469  and  _470
REMARK  196  A    between atoms: _474  and  _475
REMARK  197  A    between atoms: _480  and  _482
REMARK  198  A    between atoms: _482  and  _483
REMARK  199  A    between atoms: _482  and  _485
REMARK  200  A    between atoms: _488  and  _490
REMARK  201  A    between atoms: _490  and  _491
REMARK  202  A    between atoms: _490  and  _493
REMARK  203  A    between atoms: _493  and  _494
REMARK  204  A    between atoms: _499  and  _501
REMARK  205  A    between atoms: _501  and  _502
REMARK  206  A    between atoms: _501  and  _504
REMARK  207  A    between atoms: _504  and  _505
REMARK  208  A    between atoms: _508  and  _510
REMARK  209  A    between atoms: _510  and  _511
REMARK  210  A    between atoms: _510  and  _513
REMARK  211  A    between atoms: _513  and  _514
REMARK  212  A    between atoms: _517  and  _519
REMARK  213  A    between atoms: _519  and  _520
REMARK  214  A    between atoms: _522  and  _524
REMARK  215  A    between atoms: _524  and  _525
REMARK  216  A    between atoms: _524  and  _527
REMARK  217  A    between atoms: _527  and  _528
REMARK  218  A    between atoms: _528  and  _529
REMARK  219  A    between atoms: _529  and  _530
REMARK  220  A    between atoms: _539  and  _541
REMARK  221  A    between atoms: _541  and  _542
REMARK  222  A    between atoms: _541  and  _544
REMARK  223  A    between atoms: _544  and  _545
REMARK                            x       y       z     vdW  Elec       q    Type
REMARK                         _______ _______ _______ _____ _____    ______ ____
ROOT
ATOM      1  O   HOH     1       9.197  34.818  21.183  0.00  0.00    +0.000 OA
ENDROOT
TORSDOF 0
REMARK  Name = ../refined-set-2016/2qi0/2qi0_pocket.pdb
REMARK  223 active torsions:
REMARK  status: ('A' for Active; 'I' for Inactive)
REMARK    1  A    between atoms: _1  and  _3
REMARK    2  A    between atoms: _3  and  _4
REMARK    3  A    between atoms: _3  and  _6
REMARK    4  A    between atoms: _6  and  _7
REMARK    5  A    between atoms: _7  and  _8
REMARK    6  A    between atoms: _8  and  _9
REMARK    7  A    between atoms: _18  and  _20
REMARK    8  A    between atoms: _20  and  _21
REMARK    9  A    between atoms: _20  and  _23
REMARK   10  A    between atoms: _23  and  _24
REMARK   11  A    between atoms: _27  and  _29
REMARK   12  A    between atoms: _29  and  _30
REMARK   13  A    between atoms: _29  and  _32
REMARK   14  A    between atoms: _32  and  _33
REMARK   15  A    between atoms: _36  and  _38
REMARK   16  A    between atoms: _38  and  _39
REMARK   17  A    between atoms: _38  and  _41
REMARK   18  A    between atoms: _41  and  _42
REMARK   19  A    between atoms: _45  and  _47
REMARK   20  A    between atoms: _47  and  _48
REMARK   21  A    between atoms: _47  and  _50
REMARK   22  A    between atoms: _50  and  _51
REMARK   23  A    between atoms: _54  and  _56
REMARK   24  A    between atoms: _56  and  _57
REMARK   25  A    between atoms: _59  and  _61
REMARK   26  A    between atoms: _61  and  _62
REMARK   27  A    between atoms: _65  and  _67
REMARK   28  A    between atoms: _67  and  _68
REMARK   29  A    between atoms: _67  and  _70
REMARK   30  A    between atoms: _70  and  _71
REMARK   31  A    between atoms: _74  and  _76
REMARK   32  A    between atoms: _76  and  _77
REMARK   33  A    between atoms: _76  and  _79
REMARK   34  A    between atoms: _79  and  _80
REMARK   35  A    between atoms: _83  and  _85
REMARK   36  A    between atoms: _85  and  _86
REMARK   37  A    between atoms: _85  and  _88
REMARK   38  A    between atoms: _88  and  _89
REMARK   39  A    between atoms: _92  and  _94
REMARK   40  A    between atoms: _94  and  _95
REMARK   41  A    between atoms: _94  and  _97
REMARK   42  A    between atoms: _100  and  _102
REMARK   43  A    between atoms: _102  and  _103
REMARK   44  A    between atoms: _102  and  _105
REMARK   45  A    between atoms: _105  and  _106
REMARK   46  A    between atoms: _109  and  _111
REMARK   47  A    between atoms: _111  and  _112
REMARK   48  A    between atoms: _111  and  _114
REMARK   49  A    between atoms: _114  and  _115
REMARK   50  A    between atoms: _115  and  _116
REMARK   51  A    between atoms: _118  and  _120
REMARK   52  A    between atoms: _120  and  _121
REMARK   53  A    between atoms: _120  and  _123
REMARK   54  A    between atoms: _123  and  _124
REMARK   55  A    between atoms: _127  and  _129
REMARK   56  A    between atoms: _129  and  _130
REMARK   57  A    between atoms: _132  and  _134
REMARK   58  A    between atoms: _134  and  _135
REMARK   59  A    between atoms: _137  and  _139
REMARK   60  A    between atoms: _139  and  _140
REMARK   61  A    between atoms: _139  and  _142
REMARK   62  A    between atoms: _142  and  _143
REMARK   63  A    between atoms: _146  and  _148
REMARK   64  A    between atoms: _148  and  _149
REMARK   65  A    between atoms: _151  and  _153
REMARK   66  A    between atoms: _153  and  _154
REMARK   67  A    between atoms: _156  and  _158
REMARK   68  A    between atoms: _158  and  _159
REMARK   69  A    between atoms: _158  and  _161
REMARK   70  A    between atoms: _161  and  _162
REMARK   71  A    between atoms: _165  and  _167
REMARK   72  A    between atoms: _167  and  _168
REMARK   73  A    between atoms: _167  and  _170
REMARK   74  A    between atoms: _173  and  _175
REMARK   75  A    between atoms: _175  and  _176
REMARK   76  A    between atoms: _175  and  _178
REMARK   77  A    between atoms: _178  and  _179
REMARK   78  A    between atoms: _183  and  _184
REMARK   79  A    between atoms: _189  and  _191
REMARK   80  A    between atoms: _191  and  _192
REMARK   81  A    between atoms: _191  and  _194
REMARK   82  A    between atoms: _194  and  _195
REMARK   83  A    between atoms: _199  and  _200
REMARK   84  A    between atoms: _205  and  _207
REMARK   85  A    between atoms: _207  and  _208
REMARK   86  A    between atoms: _207  and  _210
REMARK   87  A    between atoms: _213  and  _215
REMARK   88  A    between atoms: _215  and  _216
REMARK   89  A    between atoms: _215  and  _218
REMARK   90  A    between atoms: _218  and  _219
REMARK   91  A    between atoms: _224  and  _226
REMARK   92  A    between atoms: _226  and  _227
REMARK   93  A    between atoms: _226  and  _229
REMARK   94  A    between atoms: _229  and  _230
REMARK   95  A    between atoms: _233  and  _235
REMARK   96  A    between atoms: _235  and  _236
REMARK   97  A    between atoms: _235  and  _238
REMARK   98  A    between atoms: _238  and  _239
REMARK   99  A    between atoms: _242  and  _244
REMARK  100  A    between atoms: _244  and  _245
REMARK  101  A    between atoms: _247  and  _249
REMARK  102  A    between atoms: _249  and  _250
REMARK  103  A    between atoms: _249  and  _252
REMARK  104  A    between atoms: _252  and  _253
REMARK  105  A    between atoms: _253  and  _254
REMARK  106  A    between atoms: _254  and  _255
REMARK  107  A    between atoms: _264  and  _266
REMARK  108  A    between atoms: _266  and  _267
REMARK  109  A    between atoms: _266  and  _269
REMARK  110  A    between atoms: _269  and  _270
REMARK  111  A    between atoms: _275  and  _277
REMARK  112  A    between atoms: _277  and  _278
REMARK  113  A    between atoms: _277  and  _280
REMARK  114  A    between atoms: _280  and  _281
REMARK  115  A    between atoms: _281  and  _282
REMARK  116  A    between atoms: _282  and  _283
REMARK  117  A    between atoms: _292  and  _294
REMARK  118  A    between atoms: _294  and  _295
REMARK  119  A    between atoms: _294  and  _297
REMARK  120  A    between atoms: _297  and  _298
REMARK  121  A    between atoms: _301  and  _303
REMARK  122  A    between atoms: _303  and  _304
REMARK  123  A    between atoms: _303  and  _306
REMARK  124  A    between atoms: _306  and  _307
REMARK  125  A    between atoms: _310  and  _312
REMARK  126  A    between atoms: _312  and  _313
REMARK  127  A    between atoms: _312  and  _315
REMARK  128  A    between atoms: _315  and  _316
REMARK  129  A    between atoms: _319  and  _321
REMARK  130  A    between atoms: _321  and  _322
REMARK  131  A    between atoms: _321  and  _324
REMARK  132  A    between atoms: _324  and  _325
REMARK  133  A    between atoms: _328  and  _330
REMARK  134  A    between atoms: _330  and  _331
REMARK  135  A    between atoms: _333  and  _335
REMARK  136  A    between atoms: _335  and  _336
REMARK  137  A    between atoms: _339  and  _341
REMARK  138  A    between atoms: _341  and  _342
REMARK  139  A    between atoms: _341  and  _344
REMARK  140  A    between atoms: _344  and  _345
REMARK  141  A    between atoms: _348  and  _350
REMARK  142  A    between atoms: _350  and  _351
REMARK  143  A    between atoms: _350  and  _353
REMARK  144  A    between atoms: _353  and  _354
REMARK  145  A    between atoms: _357  and  _359
REMARK  146  A    between atoms: _359  and  _360
REMARK  147  A    between atoms: _359  and  _362
REMARK  148  A    between atoms: _362  and  _363
REMARK  149  A    between atoms: _366  and  _368
REMARK  150  A    between atoms: _368  and  _369
REMARK  151  A    between atoms: _368  and  _371
REMARK  152  A    between atoms: _374  and  _376
REMARK  153  A    between atoms: _376  and  _377
REMARK  154  A    between atoms: _376  and  _379
REMARK  155  A    between atoms: _379  and  _380
REMARK  156  A    between atoms: _380  and  _381
REMARK  157  A    between atoms: _381  and  _382
REMARK  158  A    between atoms: _382  and  _383
REMARK  159  A    between atoms: _387  and  _389
REMARK  160  A    between atoms: _389  and  _390
REMARK  161  A    between atoms: _389  and  _392
REMARK  162  A    between atoms: _392  and  _393
REMARK  163  A    between atoms: _393  and  _394
REMARK  164  A    between atoms: _396  and  _398
REMARK  165  A    between atoms: _398  and  _399
REMARK  166  A    between atoms: _398  and  _401
REMARK  167  A    between atoms: _401  and  _402
REMARK  168  A    between atoms: _405  and  _407
REMARK  169  A    between atoms: _407  and  _408
REMARK  170  A    between atoms: _410  and  _412
REMARK  171  A    between atoms: _412  and  _413
REMARK  172  A    between atoms: _415  and  _417
REMARK  173  A    between atoms: _417  and  _418
REMARK  174  A    between atoms: _417  and  _420
REMARK  175  A    between atoms: _420  and  _421
REMARK  176  A    between atoms: _424  and  _426
REMARK  177  A    between atoms: _426  and  _427
REMARK  178  A    between atoms: _429  and  _431
REMARK  179  A    between atoms: _431  and  _432
REMARK  180  A    between atoms: _434  and  _436
REMARK  181  A    between atoms: _436  and  _437
REMARK  182  A    between atoms: _436  and  _439
REMARK  183  A    between atoms: _439  and  _440
REMARK  184  A    between atoms: _446  and  _448
REMARK  185  A    between atoms: _448  and  _449
REMARK  186  A    between atoms: _448  and  _451
REMARK  187  A    between atoms: _451  and  _452
REMARK  188  A    between atoms: _455  and  _457
REMARK  189  A    between atoms: _457  and  _458
REMARK  190  A    between atoms: _457  and  _460
REMARK  191  A    between atoms: _460  and  _461
REMARK  192  A    between atoms: _464  and  _466
REMARK  193  A    between atoms: _466  and  _467
REMARK  194  A    between atoms: _466  and  _469
REMARK  195  A    between atoms: _469  and  _470
REMARK  196  A    between atoms: _474  and  _475
REMARK  197  A    between atoms: _480  and  _482
REMARK  198  A    between atoms: _482  and  _483
REMARK  199  A    between atoms: _482  and  _485
REMARK  200  A    between atoms: _488  and  _490
REMARK  201  A    between atoms: _490  and  _491
REMARK  202  A    between atoms: _490  and  _493
REMARK  203  A    between atoms: _493  and  _494
REMARK  204  A    between atoms: _499  and  _501
REMARK  205  A    between atoms: _501  and  _502
REMARK  206  A    between atoms: _501  and  _504
REMARK  207  A    between atoms: _504  and  _505
REMARK  208  A    between atoms: _508  and  _510
REMARK  209  A    between atoms: _510  and  _511
REMARK  210  A    between atoms: _510  and  _513
REMARK  211  A    between atoms: _513  and  _514
REMARK  212  A    between atoms: _517  and  _519
REMARK  213  A    between atoms: _519  and  _520
REMARK  214  A    between atoms: _522  and  _524
REMARK  215  A    between atoms: _524  and  _525
REMARK  216  A    between atoms: _524  and  _527
REMARK  217  A    between atoms: _527  and  _528
REMARK  218  A    between atoms: _528  and  _529
REMARK  219  A    between atoms: _529  and  _530
REMARK  220  A    between atoms: _539  and  _541
REMARK  221  A    between atoms: _541  and  _542
REMARK  222  A    between atoms: _541  and  _544
REMARK  223  A    between atoms: _544  and  _545
REMARK                            x       y       z     vdW  Elec       q    Type
REMARK                         _______ _______ _______ _____ _____    ______ ____
ROOT
ATOM      1  O   HOH     1      17.558  40.465  16.039  0.00  0.00    +0.000 OA
ENDROOT
TORSDOF 0
REMARK  Name = ../refined-set-2016/2qi0/2qi0_pocket.pdb
REMARK  223 active torsions:
REMARK  status: ('A' for Active; 'I' for Inactive)
REMARK    1  A    between atoms: _1  and  _3
REMARK    2  A    between atoms: _3  and  _4
REMARK    3  A    between atoms: _3  and  _6
REMARK    4  A    between atoms: _6  and  _7
REMARK    5  A    between atoms: _7  and  _8
REMARK    6  A    between atoms: _8  and  _9
REMARK    7  A    between atoms: _18  and  _20
REMARK    8  A    between atoms: _20  and  _21
REMARK    9  A    between atoms: _20  and  _23
REMARK   10  A    between atoms: _23  and  _24
REMARK   11  A    between atoms: _27  and  _29
REMARK   12  A    between atoms: _29  and  _30
REMARK   13  A    between atoms: _29  and  _32
REMARK   14  A    between atoms: _32  and  _33
REMARK   15  A    between atoms: _36  and  _38
REMARK   16  A    between atoms: _38  and  _39
REMARK   17  A    between atoms: _38  and  _41
REMARK   18  A    between atoms: _41  and  _42
REMARK   19  A    between atoms: _45  and  _47
REMARK   20  A    between atoms: _47  and  _48
REMARK   21  A    between atoms: _47  and  _50
REMARK   22  A    between atoms: _50  and  _51
REMARK   23  A    between atoms: _54  and  _56
REMARK   24  A    between atoms: _56  and  _57
REMARK   25  A    between atoms: _59  and  _61
REMARK   26  A    between atoms: _61  and  _62
REMARK   27  A    between atoms: _65  and  _67
REMARK   28  A    between atoms: _67  and  _68
REMARK   29  A    between atoms: _67  and  _70
REMARK   30  A    between atoms: _70  and  _71
REMARK   31  A    between atoms: _74  and  _76
REMARK   32  A    between atoms: _76  and  _77
REMARK   33  A    between atoms: _76  and  _79
REMARK   34  A    between atoms: _79  and  _80
REMARK   35  A    between atoms: _83  and  _85
REMARK   36  A    between atoms: _85  and  _86
REMARK   37  A    between atoms: _85  and  _88
REMARK   38  A    between atoms: _88  and  _89
REMARK   39  A    between atoms: _92  and  _94
REMARK   40  A    between atoms: _94  and  _95
REMARK   41  A    between atoms: _94  and  _97
REMARK   42  A    between atoms: _100  and  _102
REMARK   43  A    between atoms: _102  and  _103
REMARK   44  A    between atoms: _102  and  _105
REMARK   45  A    between atoms: _105  and  _106
REMARK   46  A    between atoms: _109  and  _111
REMARK   47  A    between atoms: _111  and  _112
REMARK   48  A    between atoms: _111  and  _114
REMARK   49  A    between atoms: _114  and  _115
REMARK   50  A    between atoms: _115  and  _116
REMARK   51  A    between atoms: _118  and  _120
REMARK   52  A    between atoms: _120  and  _121
REMARK   53  A    between atoms: _120  and  _123
REMARK   54  A    between atoms: _123  and  _124
REMARK   55  A    between atoms: _127  and  _129
REMARK   56  A    between atoms: _129  and  _130
REMARK   57  A    between atoms: _132  and  _134
REMARK   58  A    between atoms: _134  and  _135
REMARK   59  A    between atoms: _137  and  _139
REMARK   60  A    between atoms: _139  and  _140
REMARK   61  A    between atoms: _139  and  _142
REMARK   62  A    between atoms: _142  and  _143
REMARK   63  A    between atoms: _146  and  _148
REMARK   64  A    between atoms: _148  and  _149
REMARK   65  A    between atoms: _151  and  _153
REMARK   66  A    between atoms: _153  and  _154
REMARK   67  A    between atoms: _156  and  _158
REMARK   68  A    between atoms: _158  and  _159
REMARK   69  A    between atoms: _158  and  _161
REMARK   70  A    between atoms: _161  and  _162
REMARK   71  A    between atoms: _165  and  _167
REMARK   72  A    between atoms: _167  and  _168
REMARK   73  A    between atoms: _167  and  _170
REMARK   74  A    between atoms: _173  and  _175
REMARK   75  A    between atoms: _175  and  _176
REMARK   76  A    between atoms: _175  and  _178
REMARK   77  A    between atoms: _178  and  _179
REMARK   78  A    between atoms: _183  and  _184
REMARK   79  A    between atoms: _189  and  _191
REMARK   80  A    between atoms: _191  and  _192
REMARK   81  A    between atoms: _191  and  _194
REMARK   82  A    between atoms: _194  and  _195
REMARK   83  A    between atoms: _199  and  _200
REMARK   84  A    between atoms: _205  and  _207
REMARK   85  A    between atoms: _207  and  _208
REMARK   86  A    between atoms: _207  and  _210
REMARK   87  A    between atoms: _213  and  _215
REMARK   88  A    between atoms: _215  and  _216
REMARK   89  A    between atoms: _215  and  _218
REMARK   90  A    between atoms: _218  and  _219
REMARK   91  A    between atoms: _224  and  _226
REMARK   92  A    between atoms: _226  and  _227
REMARK   93  A    between atoms: _226  and  _229
REMARK   94  A    between atoms: _229  and  _230
REMARK   95  A    between atoms: _233  and  _235
REMARK   96  A    between atoms: _235  and  _236
REMARK   97  A    between atoms: _235  and  _238
REMARK   98  A    between atoms: _238  and  _239
REMARK   99  A    between atoms: _242  and  _244
REMARK  100  A    between atoms: _244  and  _245
REMARK  101  A    between atoms: _247  and  _249
REMARK  102  A    between atoms: _249  and  _250
REMARK  103  A    between atoms: _249  and  _252
REMARK  104  A    between atoms: _252  and  _253
REMARK  105  A    between atoms: _253  and  _254
REMARK  106  A    between atoms: _254  and  _255
REMARK  107  A    between atoms: _264  and  _266
REMARK  108  A    between atoms: _266  and  _267
REMARK  109  A    between atoms: _266  and  _269
REMARK  110  A    between atoms: _269  and  _270
REMARK  111  A    between atoms: _275  and  _277
REMARK  112  A    between atoms: _277  and  _278
REMARK  113  A    between atoms: _277  and  _280
REMARK  114  A    between atoms: _280  and  _281
REMARK  115  A    between atoms: _281  and  _282
REMARK  116  A    between atoms: _282  and  _283
REMARK  117  A    between atoms: _292  and  _294
REMARK  118  A    between atoms: _294  and  _295
REMARK  119  A    between atoms: _294  and  _297
REMARK  120  A    between atoms: _297  and  _298
REMARK  121  A    between atoms: _301  and  _303
REMARK  122  A    between atoms: _303  and  _304
REMARK  123  A    between atoms: _303  and  _306
REMARK  124  A    between atoms: _306  and  _307
REMARK  125  A    between atoms: _310  and  _312
REMARK  126  A    between atoms: _312  and  _313
REMARK  127  A    between atoms: _312  and  _315
REMARK  128  A    between atoms: _315  and  _316
REMARK  129  A    between atoms: _319  and  _321
REMARK  130  A    between atoms: _321  and  _322
REMARK  131  A    between atoms: _321  and  _324
REMARK  132  A    between atoms: _324  and  _325
REMARK  133  A    between atoms: _328  and  _330
REMARK  134  A    between atoms: _330  and  _331
REMARK  135  A    between atoms: _333  and  _335
REMARK  136  A    between atoms: _335  and  _336
REMARK  137  A    between atoms: _339  and  _341
REMARK  138  A    between atoms: _341  and  _342
REMARK  139  A    between atoms: _341  and  _344
REMARK  140  A    between atoms: _344  and  _345
REMARK  141  A    between atoms: _348  and  _350
REMARK  142  A    between atoms: _350  and  _351
REMARK  143  A    between atoms: _350  and  _353
REMARK  144  A    between atoms: _353  and  _354
REMARK  145  A    between atoms: _357  and  _359
REMARK  146  A    between atoms: _359  and  _360
REMARK  147  A    between atoms: _359  and  _362
REMARK  148  A    between atoms: _362  and  _363
REMARK  149  A    between atoms: _366  and  _368
REMARK  150  A    between atoms: _368  and  _369
REMARK  151  A    between atoms: _368  and  _371
REMARK  152  A    between atoms: _374  and  _376
REMARK  153  A    between atoms: _376  and  _377
REMARK  154  A    between atoms: _376  and  _379
REMARK  155  A    between atoms: _379  and  _380
REMARK  156  A    between atoms: _380  and  _381
REMARK  157  A    between atoms: _381  and  _382
REMARK  158  A    between atoms: _382  and  _383
REMARK  159  A    between atoms: _387  and  _389
REMARK  160  A    between atoms: _389  and  _390
REMARK  161  A    between atoms: _389  and  _392
REMARK  162  A    between atoms: _392  and  _393
REMARK  163  A    between atoms: _393  and  _394
REMARK  164  A    between atoms: _396  and  _398
REMARK  165  A    between atoms: _398  and  _399
REMARK  166  A    between atoms: _398  and  _401
REMARK  167  A    between atoms: _401  and  _402
REMARK  168  A    between atoms: _405  and  _407
REMARK  169  A    between atoms: _407  and  _408
REMARK  170  A    between atoms: _410  and  _412
REMARK  171  A    between atoms: _412  and  _413
REMARK  172  A    between atoms: _415  and  _417
REMARK  173  A    between atoms: _417  and  _418
REMARK  174  A    between atoms: _417  and  _420
REMARK  175  A    between atoms: _420  and  _421
REMARK  176  A    between atoms: _424  and  _426
REMARK  177  A    between atoms: _426  and  _427
REMARK  178  A    between atoms: _429  and  _431
REMARK  179  A    between atoms: _431  and  _432
REMARK  180  A    between atoms: _434  and  _436
REMARK  181  A    between atoms: _436  and  _437
REMARK  182  A    between atoms: _436  and  _439
REMARK  183  A    between atoms: _439  and  _440
REMARK  184  A    between atoms: _446  and  _448
REMARK  185  A    between atoms: _448  and  _449
REMARK  186  A    between atoms: _448  and  _451
REMARK  187  A    between atoms: _451  and  _452
REMARK  188  A    between atoms: _455  and  _457
REMARK  189  A    between atoms: _457  and  _458
REMARK  190  A    between atoms: _457  and  _460
REMARK  191  A    between atoms: _460  and  _461
REMARK  192  A    between atoms: _464  and  _466
REMARK  193  A    between atoms: _466  and  _467
REMARK  194  A    between atoms: _466  and  _469
REMARK  195  A    between atoms: _469  and  _470
REMARK  196  A    between atoms: _474  and  _475
REMARK  197  A    between atoms: _480  and  _482
REMARK  198  A    between atoms: _482  and  _483
REMARK  199  A    between atoms: _482  and  _485
REMARK  200  A    between atoms: _488  and  _490
REMARK  201  A    between atoms: _490  and  _491
REMARK  202  A    between atoms: _490  and  _493
REMARK  203  A    between atoms: _493  and  _494
REMARK  204  A    between atoms: _499  and  _501
REMARK  205  A    between atoms: _501  and  _502
REMARK  206  A    between atoms: _501  and  _504
REMARK  207  A    between atoms: _504  and  _505
REMARK  208  A    between atoms: _508  and  _510
REMARK  209  A    between atoms: _510  and  _511
REMARK  210  A    between atoms: _510  and  _513
REMARK  211  A    between atoms: _513  and  _514
REMARK  212  A    between atoms: _517  and  _519
REMARK  213  A    between atoms: _519  and  _520
REMARK  214  A    between atoms: _522  and  _524
REMARK  215  A    between atoms: _524  and  _525
REMARK  216  A    between atoms: _524  and  _527
REMARK  217  A    between atoms: _527  and  _528
REMARK  218  A    between atoms: _528  and  _529
REMARK  219  A    between atoms: _529  and  _530
REMARK  220  A    between atoms: _539  and  _541
REMARK  221  A    between atoms: _541  and  _542
REMARK  222  A    between atoms: _541  and  _544
REMARK  223  A    between atoms: _544  and  _545
REMARK                            x       y       z     vdW  Elec       q    Type
REMARK                         _______ _______ _______ _____ _____    ______ ____
ROOT
ATOM      1  O   HOH     1      14.549  39.707  19.999  0.00  0.00    +0.000 OA
ENDROOT
TORSDOF 0
REMARK  Name = ../refined-set-2016/2qi0/2qi0_pocket.pdb
REMARK  223 active torsions:
REMARK  status: ('A' for Active; 'I' for Inactive)
REMARK    1  A    between atoms: _1  and  _3
REMARK    2  A    between atoms: _3  and  _4
REMARK    3  A    between atoms: _3  and  _6
REMARK    4  A    between atoms: _6  and  _7
REMARK    5  A    between atoms: _7  and  _8
REMARK    6  A    between atoms: _8  and  _9
REMARK    7  A    between atoms: _18  and  _20
REMARK    8  A    between atoms: _20  and  _21
REMARK    9  A    between atoms: _20  and  _23
REMARK   10  A    between atoms: _23  and  _24
REMARK   11  A    between atoms: _27  and  _29
REMARK   12  A    between atoms: _29  and  _30
REMARK   13  A    between atoms: _29  and  _32
REMARK   14  A    between atoms: _32  and  _33
REMARK   15  A    between atoms: _36  and  _38
REMARK   16  A    between atoms: _38  and  _39
REMARK   17  A    between atoms: _38  and  _41
REMARK   18  A    between atoms: _41  and  _42
REMARK   19  A    between atoms: _45  and  _47
REMARK   20  A    between atoms: _47  and  _48
REMARK   21  A    between atoms: _47  and  _50
REMARK   22  A    between atoms: _50  and  _51
REMARK   23  A    between atoms: _54  and  _56
REMARK   24  A    between atoms: _56  and  _57
REMARK   25  A    between atoms: _59  and  _61
REMARK   26  A    between atoms: _61  and  _62
REMARK   27  A    between atoms: _65  and  _67
REMARK   28  A    between atoms: _67  and  _68
REMARK   29  A    between atoms: _67  and  _70
REMARK   30  A    between atoms: _70  and  _71
REMARK   31  A    between atoms: _74  and  _76
REMARK   32  A    between atoms: _76  and  _77
REMARK   33  A    between atoms: _76  and  _79
REMARK   34  A    between atoms: _79  and  _80
REMARK   35  A    between atoms: _83  and  _85
REMARK   36  A    between atoms: _85  and  _86
REMARK   37  A    between atoms: _85  and  _88
REMARK   38  A    between atoms: _88  and  _89
REMARK   39  A    between atoms: _92  and  _94
REMARK   40  A    between atoms: _94  and  _95
REMARK   41  A    between atoms: _94  and  _97
REMARK   42  A    between atoms: _100  and  _102
REMARK   43  A    between atoms: _102  and  _103
REMARK   44  A    between atoms: _102  and  _105
REMARK   45  A    between atoms: _105  and  _106
REMARK   46  A    between atoms: _109  and  _111
REMARK   47  A    between atoms: _111  and  _112
REMARK   48  A    between atoms: _111  and  _114
REMARK   49  A    between atoms: _114  and  _115
REMARK   50  A    between atoms: _115  and  _116
REMARK   51  A    between atoms: _118  and  _120
REMARK   52  A    between atoms: _120  and  _121
REMARK   53  A    between atoms: _120  and  _123
REMARK   54  A    between atoms: _123  and  _124
REMARK   55  A    between atoms: _127  and  _129
REMARK   56  A    between atoms: _129  and  _130
REMARK   57  A    between atoms: _132  and  _134
REMARK   58  A    between atoms: _134  and  _135
REMARK   59  A    between atoms: _137  and  _139
REMARK   60  A    between atoms: _139  and  _140
REMARK   61  A    between atoms: _139  and  _142
REMARK   62  A    between atoms: _142  and  _143
REMARK   63  A    between atoms: _146  and  _148
REMARK   64  A    between atoms: _148  and  _149
REMARK   65  A    between atoms: _151  and  _153
REMARK   66  A    between atoms: _153  and  _154
REMARK   67  A    between atoms: _156  and  _158
REMARK   68  A    between atoms: _158  and  _159
REMARK   69  A    between atoms: _158  and  _161
REMARK   70  A    between atoms: _161  and  _162
REMARK   71  A    between atoms: _165  and  _167
REMARK   72  A    between atoms: _167  and  _168
REMARK   73  A    between atoms: _167  and  _170
REMARK   74  A    between atoms: _173  and  _175
REMARK   75  A    between atoms: _175  and  _176
REMARK   76  A    between atoms: _175  and  _178
REMARK   77  A    between atoms: _178  and  _179
REMARK   78  A    between atoms: _183  and  _184
REMARK   79  A    between atoms: _189  and  _191
REMARK   80  A    between atoms: _191  and  _192
REMARK   81  A    between atoms: _191  and  _194
REMARK   82  A    between atoms: _194  and  _195
REMARK   83  A    between atoms: _199  and  _200
REMARK   84  A    between atoms: _205  and  _207
REMARK   85  A    between atoms: _207  and  _208
REMARK   86  A    between atoms: _207  and  _210
REMARK   87  A    between atoms: _213  and  _215
REMARK   88  A    between atoms: _215  and  _216
REMARK   89  A    between atoms: _215  and  _218
REMARK   90  A    between atoms: _218  and  _219
REMARK   91  A    between atoms: _224  and  _226
REMARK   92  A    between atoms: _226  and  _227
REMARK   93  A    between atoms: _226  and  _229
REMARK   94  A    between atoms: _229  and  _230
REMARK   95  A    between atoms: _233  and  _235
REMARK   96  A    between atoms: _235  and  _236
REMARK   97  A    between atoms: _235  and  _238
REMARK   98  A    between atoms: _238  and  _239
REMARK   99  A    between atoms: _242  and  _244
REMARK  100  A    between atoms: _244  and  _245
REMARK  101  A    between atoms: _247  and  _249
REMARK  102  A    between atoms: _249  and  _250
REMARK  103  A    between atoms: _249  and  _252
REMARK  104  A    between atoms: _252  and  _253
REMARK  105  A    between atoms: _253  and  _254
REMARK  106  A    between atoms: _254  and  _255
REMARK  107  A    between atoms: _264  and  _266
REMARK  108  A    between atoms: _266  and  _267
REMARK  109  A    between atoms: _266  and  _269
REMARK  110  A    between atoms: _269  and  _270
REMARK  111  A    between atoms: _275  and  _277
REMARK  112  A    between atoms: _277  and  _278
REMARK  113  A    between atoms: _277  and  _280
REMARK  114  A    between atoms: _280  and  _281
REMARK  115  A    between atoms: _281  and  _282
REMARK  116  A    between atoms: _282  and  _283
REMARK  117  A    between atoms: _292  and  _294
REMARK  118  A    between atoms: _294  and  _295
REMARK  119  A    between atoms: _294  and  _297
REMARK  120  A    between atoms: _297  and  _298
REMARK  121  A    between atoms: _301  and  _303
REMARK  122  A    between atoms: _303  and  _304
REMARK  123  A    between atoms: _303  and  _306
REMARK  124  A    between atoms: _306  and  _307
REMARK  125  A    between atoms: _310  and  _312
REMARK  126  A    between atoms: _312  and  _313
REMARK  127  A    between atoms: _312  and  _315
REMARK  128  A    between atoms: _315  and  _316
REMARK  129  A    between atoms: _319  and  _321
REMARK  130  A    between atoms: _321  and  _322
REMARK  131  A    between atoms: _321  and  _324
REMARK  132  A    between atoms: _324  and  _325
REMARK  133  A    between atoms: _328  and  _330
REMARK  134  A    between atoms: _330  and  _331
REMARK  135  A    between atoms: _333  and  _335
REMARK  136  A    between atoms: _335  and  _336
REMARK  137  A    between atoms: _339  and  _341
REMARK  138  A    between atoms: _341  and  _342
REMARK  139  A    between atoms: _341  and  _344
REMARK  140  A    between atoms: _344  and  _345
REMARK  141  A    between atoms: _348  and  _350
REMARK  142  A    between atoms: _350  and  _351
REMARK  143  A    between atoms: _350  and  _353
REMARK  144  A    between atoms: _353  and  _354
REMARK  145  A    between atoms: _357  and  _359
REMARK  146  A    between atoms: _359  and  _360
REMARK  147  A    between atoms: _359  and  _362
REMARK  148  A    between atoms: _362  and  _363
REMARK  149  A    between atoms: _366  and  _368
REMARK  150  A    between atoms: _368  and  _369
REMARK  151  A    between atoms: _368  and  _371
REMARK  152  A    between atoms: _374  and  _376
REMARK  153  A    between atoms: _376  and  _377
REMARK  154  A    between atoms: _376  and  _379
REMARK  155  A    between atoms: _379  and  _380
REMARK  156  A    between atoms: _380  and  _381
REMARK  157  A    between atoms: _381  and  _382
REMARK  158  A    between atoms: _382  and  _383
REMARK  159  A    between atoms: _387  and  _389
REMARK  160  A    between atoms: _389  and  _390
REMARK  161  A    between atoms: _389  and  _392
REMARK  162  A    between atoms: _392  and  _393
REMARK  163  A    between atoms: _393  and  _394
REMARK  164  A    between atoms: _396  and  _398
REMARK  165  A    between atoms: _398  and  _399
REMARK  166  A    between atoms: _398  and  _401
REMARK  167  A    between atoms: _401  and  _402
REMARK  168  A    between atoms: _405  and  _407
REMARK  169  A    between atoms: _407  and  _408
REMARK  170  A    between atoms: _410  and  _412
REMARK  171  A    between atoms: _412  and  _413
REMARK  172  A    between atoms: _415  and  _417
REMARK  173  A    between atoms: _417  and  _418
REMARK  174  A    between atoms: _417  and  _420
REMARK  175  A    between atoms: _420  and  _421
REMARK  176  A    between atoms: _424  and  _426
REMARK  177  A    between atoms: _426  and  _427
REMARK  178  A    between atoms: _429  and  _431
REMARK  179  A    between atoms: _431  and  _432
REMARK  180  A    between atoms: _434  and  _436
REMARK  181  A    between atoms: _436  and  _437
REMARK  182  A    between atoms: _436  and  _439
REMARK  183  A    between atoms: _439  and  _440
REMARK  184  A    between atoms: _446  and  _448
REMARK  185  A    between atoms: _448  and  _449
REMARK  186  A    between atoms: _448  and  _451
REMARK  187  A    between atoms: _451  and  _452
REMARK  188  A    between atoms: _455  and  _457
REMARK  189  A    between atoms: _457  and  _458
REMARK  190  A    between atoms: _457  and  _460
REMARK  191  A    between atoms: _460  and  _461
REMARK  192  A    between atoms: _464  and  _466
REMARK  193  A    between atoms: _466  and  _467
REMARK  194  A    between atoms: _466  and  _469
REMARK  195  A    between atoms: _469  and  _470
REMARK  196  A    between atoms: _474  and  _475
REMARK  197  A    between atoms: _480  and  _482
REMARK  198  A    between atoms: _482  and  _483
REMARK  199  A    between atoms: _482  and  _485
REMARK  200  A    between atoms: _488  and  _490
REMARK  201  A    between atoms: _490  and  _491
REMARK  202  A    between atoms: _490  and  _493
REMARK  203  A    between atoms: _493  and  _494
REMARK  204  A    between atoms: _499  and  _501
REMARK  205  A    between atoms: _501  and  _502
REMARK  206  A    between atoms: _501  and  _504
REMARK  207  A    between atoms: _504  and  _505
REMARK  208  A    between atoms: _508  and  _510
REMARK  209  A    between atoms: _510  and  _511
REMARK  210  A    between atoms: _510  and  _513
REMARK  211  A    between atoms: _513  and  _514
REMARK  212  A    between atoms: _517  and  _519
REMARK  213  A    between atoms: _519  and  _520
REMARK  214  A    between atoms: _522  and  _524
REMARK  215  A    between atoms: _524  and  _525
REMARK  216  A    between atoms: _524  and  _527
REMARK  217  A    between atoms: _527  and  _528
REMARK  218  A    between atoms: _528  and  _529
REMARK  219  A    between atoms: _529  and  _530
REMARK  220  A    between atoms: _539  and  _541
REMARK  221  A    between atoms: _541  and  _542
REMARK  222  A    between atoms: _541  and  _544
REMARK  223  A    between atoms: _544  and  _545
REMARK                            x       y       z     vdW  Elec       q    Type
REMARK                         _______ _______ _______ _____ _____    ______ ____
ROOT
ATOM      1  O   HOH     1      19.982  32.354  11.726  0.00  0.00    +0.000 OA
ENDROOT
TORSDOF 0
REMARK  Name = ../refined-set-2016/2qi0/2qi0_pocket.pdb
REMARK  223 active torsions:
REMARK  status: ('A' for Active; 'I' for Inactive)
REMARK    1  A    between atoms: _1  and  _3
REMARK    2  A    between atoms: _3  and  _4
REMARK    3  A    between atoms: _3  and  _6
REMARK    4  A    between atoms: _6  and  _7
REMARK    5  A    between atoms: _7  and  _8
REMARK    6  A    between atoms: _8  and  _9
REMARK    7  A    between atoms: _18  and  _20
REMARK    8  A    between atoms: _20  and  _21
REMARK    9  A    between atoms: _20  and  _23
REMARK   10  A    between atoms: _23  and  _24
REMARK   11  A    between atoms: _27  and  _29
REMARK   12  A    between atoms: _29  and  _30
REMARK   13  A    between atoms: _29  and  _32
REMARK   14  A    between atoms: _32  and  _33
REMARK   15  A    between atoms: _36  and  _38
REMARK   16  A    between atoms: _38  and  _39
REMARK   17  A    between atoms: _38  and  _41
REMARK   18  A    between atoms: _41  and  _42
REMARK   19  A    between atoms: _45  and  _47
REMARK   20  A    between atoms: _47  and  _48
REMARK   21  A    between atoms: _47  and  _50
REMARK   22  A    between atoms: _50  and  _51
REMARK   23  A    between atoms: _54  and  _56
REMARK   24  A    between atoms: _56  and  _57
REMARK   25  A    between atoms: _59  and  _61
REMARK   26  A    between atoms: _61  and  _62
REMARK   27  A    between atoms: _65  and  _67
REMARK   28  A    between atoms: _67  and  _68
REMARK   29  A    between atoms: _67  and  _70
REMARK   30  A    between atoms: _70  and  _71
REMARK   31  A    between atoms: _74  and  _76
REMARK   32  A    between atoms: _76  and  _77
REMARK   33  A    between atoms: _76  and  _79
REMARK   34  A    between atoms: _79  and  _80
REMARK   35  A    between atoms: _83  and  _85
REMARK   36  A    between atoms: _85  and  _86
REMARK   37  A    between atoms: _85  and  _88
REMARK   38  A    between atoms: _88  and  _89
REMARK   39  A    between atoms: _92  and  _94
REMARK   40  A    between atoms: _94  and  _95
REMARK   41  A    between atoms: _94  and  _97
REMARK   42  A    between atoms: _100  and  _102
REMARK   43  A    between atoms: _102  and  _103
REMARK   44  A    between atoms: _102  and  _105
REMARK   45  A    between atoms: _105  and  _106
REMARK   46  A    between atoms: _109  and  _111
REMARK   47  A    between atoms: _111  and  _112
REMARK   48  A    between atoms: _111  and  _114
REMARK   49  A    between atoms: _114  and  _115
REMARK   50  A    between atoms: _115  and  _116
REMARK   51  A    between atoms: _118  and  _120
REMARK   52  A    between atoms: _120  and  _121
REMARK   53  A    between atoms: _120  and  _123
REMARK   54  A    between atoms: _123  and  _124
REMARK   55  A    between atoms: _127  and  _129
REMARK   56  A    between atoms: _129  and  _130
REMARK   57  A    between atoms: _132  and  _134
REMARK   58  A    between atoms: _134  and  _135
REMARK   59  A    between atoms: _137  and  _139
REMARK   60  A    between atoms: _139  and  _140
REMARK   61  A    between atoms: _139  and  _142
REMARK   62  A    between atoms: _142  and  _143
REMARK   63  A    between atoms: _146  and  _148
REMARK   64  A    between atoms: _148  and  _149
REMARK   65  A    between atoms: _151  and  _153
REMARK   66  A    between atoms: _153  and  _154
REMARK   67  A    between atoms: _156  and  _158
REMARK   68  A    between atoms: _158  and  _159
REMARK   69  A    between atoms: _158  and  _161
REMARK   70  A    between atoms: _161  and  _162
REMARK   71  A    between atoms: _165  and  _167
REMARK   72  A    between atoms: _167  and  _168
REMARK   73  A    between atoms: _167  and  _170
REMARK   74  A    between atoms: _173  and  _175
REMARK   75  A    between atoms: _175  and  _176
REMARK   76  A    between atoms: _175  and  _178
REMARK   77  A    between atoms: _178  and  _179
REMARK   78  A    between atoms: _183  and  _184
REMARK   79  A    between atoms: _189  and  _191
REMARK   80  A    between atoms: _191  and  _192
REMARK   81  A    between atoms: _191  and  _194
REMARK   82  A    between atoms: _194  and  _195
REMARK   83  A    between atoms: _199  and  _200
REMARK   84  A    between atoms: _205  and  _207
REMARK   85  A    between atoms: _207  and  _208
REMARK   86  A    between atoms: _207  and  _210
REMARK   87  A    between atoms: _213  and  _215
REMARK   88  A    between atoms: _215  and  _216
REMARK   89  A    between atoms: _215  and  _218
REMARK   90  A    between atoms: _218  and  _219
REMARK   91  A    between atoms: _224  and  _226
REMARK   92  A    between atoms: _226  and  _227
REMARK   93  A    between atoms: _226  and  _229
REMARK   94  A    between atoms: _229  and  _230
REMARK   95  A    between atoms: _233  and  _235
REMARK   96  A    between atoms: _235  and  _236
REMARK   97  A    between atoms: _235  and  _238
REMARK   98  A    between atoms: _238  and  _239
REMARK   99  A    between atoms: _242  and  _244
REMARK  100  A    between atoms: _244  and  _245
REMARK  101  A    between atoms: _247  and  _249
REMARK  102  A    between atoms: _249  and  _250
REMARK  103  A    between atoms: _249  and  _252
REMARK  104  A    between atoms: _252  and  _253
REMARK  105  A    between atoms: _253  and  _254
REMARK  106  A    between atoms: _254  and  _255
REMARK  107  A    between atoms: _264  and  _266
REMARK  108  A    between atoms: _266  and  _267
REMARK  109  A    between atoms: _266  and  _269
REMARK  110  A    between atoms: _269  and  _270
REMARK  111  A    between atoms: _275  and  _277
REMARK  112  A    between atoms: _277  and  _278
REMARK  113  A    between atoms: _277  and  _280
REMARK  114  A    between atoms: _280  and  _281
REMARK  115  A    between atoms: _281  and  _282
REMARK  116  A    between atoms: _282  and  _283
REMARK  117  A    between atoms: _292  and  _294
REMARK  118  A    between atoms: _294  and  _295
REMARK  119  A    between atoms: _294  and  _297
REMARK  120  A    between atoms: _297  and  _298
REMARK  121  A    between atoms: _301  and  _303
REMARK  122  A    between atoms: _303  and  _304
REMARK  123  A    between atoms: _303  and  _306
REMARK  124  A    between atoms: _306  and  _307
REMARK  125  A    between atoms: _310  and  _312
REMARK  126  A    between atoms: _312  and  _313
REMARK  127  A    between atoms: _312  and  _315
REMARK  128  A    between atoms: _315  and  _316
REMARK  129  A    between atoms: _319  and  _321
REMARK  130  A    between atoms: _321  and  _322
REMARK  131  A    between atoms: _321  and  _324
REMARK  132  A    between atoms: _324  and  _325
REMARK  133  A    between atoms: _328  and  _330
REMARK  134  A    between atoms: _330  and  _331
REMARK  135  A    between atoms: _333  and  _335
REMARK  136  A    between atoms: _335  and  _336
REMARK  137  A    between atoms: _339  and  _341
REMARK  138  A    between atoms: _341  and  _342
REMARK  139  A    between atoms: _341  and  _344
REMARK  140  A    between atoms: _344  and  _345
REMARK  141  A    between atoms: _348  and  _350
REMARK  142  A    between atoms: _350  and  _351
REMARK  143  A    between atoms: _350  and  _353
REMARK  144  A    between atoms: _353  and  _354
REMARK  145  A    between atoms: _357  and  _359
REMARK  146  A    between atoms: _359  and  _360
REMARK  147  A    between atoms: _359  and  _362
REMARK  148  A    between atoms: _362  and  _363
REMARK  149  A    between atoms: _366  and  _368
REMARK  150  A    between atoms: _368  and  _369
REMARK  151  A    between atoms: _368  and  _371
REMARK  152  A    between atoms: _374  and  _376
REMARK  153  A    between atoms: _376  and  _377
REMARK  154  A    between atoms: _376  and  _379
REMARK  155  A    between atoms: _379  and  _380
REMARK  156  A    between atoms: _380  and  _381
REMARK  157  A    between atoms: _381  and  _382
REMARK  158  A    between atoms: _382  and  _383
REMARK  159  A    between atoms: _387  and  _389
REMARK  160  A    between atoms: _389  and  _390
REMARK  161  A    between atoms: _389  and  _392
REMARK  162  A    between atoms: _392  and  _393
REMARK  163  A    between atoms: _393  and  _394
REMARK  164  A    between atoms: _396  and  _398
REMARK  165  A    between atoms: _398  and  _399
REMARK  166  A    between atoms: _398  and  _401
REMARK  167  A    between atoms: _401  and  _402
REMARK  168  A    between atoms: _405  and  _407
REMARK  169  A    between atoms: _407  and  _408
REMARK  170  A    between atoms: _410  and  _412
REMARK  171  A    between atoms: _412  and  _413
REMARK  172  A    between atoms: _415  and  _417
REMARK  173  A    between atoms: _417  and  _418
REMARK  174  A    between atoms: _417  and  _420
REMARK  175  A    between atoms: _420  and  _421
REMARK  176  A    between atoms: _424  and  _426
REMARK  177  A    between atoms: _426  and  _427
REMARK  178  A    between atoms: _429  and  _431
REMARK  179  A    between atoms: _431  and  _432
REMARK  180  A    between atoms: _434  and  _436
REMARK  181  A    between atoms: _436  and  _437
REMARK  182  A    between atoms: _436  and  _439
REMARK  183  A    between atoms: _439  and  _440
REMARK  184  A    between atoms: _446  and  _448
REMARK  185  A    between atoms: _448  and  _449
REMARK  186  A    between atoms: _448  and  _451
REMARK  187  A    between atoms: _451  and  _452
REMARK  188  A    between atoms: _455  and  _457
REMARK  189  A    between atoms: _457  and  _458
REMARK  190  A    between atoms: _457  and  _460
REMARK  191  A    between atoms: _460  and  _461
REMARK  192  A    between atoms: _464  and  _466
REMARK  193  A    between atoms: _466  and  _467
REMARK  194  A    between atoms: _466  and  _469
REMARK  195  A    between atoms: _469  and  _470
REMARK  196  A    between atoms: _474  and  _475
REMARK  197  A    between atoms: _480  and  _482
REMARK  198  A    between atoms: _482  and  _483
REMARK  199  A    between atoms: _482  and  _485
REMARK  200  A    between atoms: _488  and  _490
REMARK  201  A    between atoms: _490  and  _491
REMARK  202  A    between atoms: _490  and  _493
REMARK  203  A    between atoms: _493  and  _494
REMARK  204  A    between atoms: _499  and  _501
REMARK  205  A    between atoms: _501  and  _502
REMARK  206  A    between atoms: _501  and  _504
REMARK  207  A    between atoms: _504  and  _505
REMARK  208  A    between atoms: _508  and  _510
REMARK  209  A    between atoms: _510  and  _511
REMARK  210  A    between atoms: _510  and  _513
REMARK  211  A    between atoms: _513  and  _514
REMARK  212  A    between atoms: _517  and  _519
REMARK  213  A    between atoms: _519  and  _520
REMARK  214  A    between atoms: _522  and  _524
REMARK  215  A    between atoms: _524  and  _525
REMARK  216  A    between atoms: _524  and  _527
REMARK  217  A    between atoms: _527  and  _528
REMARK  218  A    between atoms: _528  and  _529
REMARK  219  A    between atoms: _529  and  _530
REMARK  220  A    between atoms: _539  and  _541
REMARK  221  A    between atoms: _541  and  _542
REMARK  222  A    between atoms: _541  and  _544
REMARK  223  A    between atoms: _544  and  _545
REMARK                            x       y       z     vdW  Elec       q    Type
REMARK                         _______ _______ _______ _____ _____    ______ ____
ROOT
ATOM      1  O   HOH     1      14.908  43.434  16.816  0.00  0.00    +0.000 OA
ENDROOT
TORSDOF 0
