REMARK  Name = ../refined-set-2016/1fcy/1fcy_pocket.pdb
REMARK  258 active torsions:
REMARK  status: ('A' for Active; 'I' for Inactive)
REMARK    1  A    between atoms: _1  and  _3
REMARK    2  A    between atoms: _3  and  _4
REMARK    3  A    between atoms: _3  and  _6
REMARK    4  A    between atoms: _6  and  _7
REMARK    5  A    between atoms: _10  and  _12
REMARK    6  A    between atoms: _12  and  _13
REMARK    7  A    between atoms: _12  and  _15
REMARK    8  A    between atoms: _15  and  _16
REMARK    9  A    between atoms: _23  and  _24
REMARK   10  A    between atoms: _29  and  _31
REMARK   11  A    between atoms: _31  and  _32
REMARK   12  A    between atoms: _31  and  _34
REMARK   13  A    between atoms: _34  and  _35
REMARK   14  A    between atoms: _38  and  _40
REMARK   15  A    between atoms: _40  and  _41
REMARK   16  A    between atoms: _40  and  _43
REMARK   17  A    between atoms: _43  and  _44
REMARK   18  A    between atoms: _54  and  _56
REMARK   19  A    between atoms: _56  and  _57
REMARK   20  A    between atoms: _56  and  _59
REMARK   21  A    between atoms: _59  and  _60
REMARK   22  A    between atoms: _60  and  _61
REMARK   23  A    between atoms: _61  and  _62
REMARK   24  A    between atoms: _62  and  _63
REMARK   25  A    between atoms: _67  and  _69
REMARK   26  A    between atoms: _69  and  _70
REMARK   27  A    between atoms: _69  and  _72
REMARK   28  A    between atoms: _72  and  _73
REMARK   29  A    between atoms: _79  and  _81
REMARK   30  A    between atoms: _81  and  _82
REMARK   31  A    between atoms: _81  and  _84
REMARK   32  A    between atoms: _84  and  _85
REMARK   33  A    between atoms: _87  and  _89
REMARK   34  A    between atoms: _89  and  _90
REMARK   35  A    between atoms: _89  and  _92
REMARK   36  A    between atoms: _92  and  _93
REMARK   37  A    between atoms: _93  and  _94
REMARK   38  A    between atoms: _97  and  _99
REMARK   39  A    between atoms: _99  and  _100
REMARK   40  A    between atoms: _99  and  _102
REMARK   41  A    between atoms: _102  and  _103
REMARK   42  A    between atoms: _106  and  _108
REMARK   43  A    between atoms: _108  and  _109
REMARK   44  A    between atoms: _112  and  _114
REMARK   45  A    between atoms: _114  and  _115
REMARK   46  A    between atoms: _114  and  _117
REMARK   47  A    between atoms: _117  and  _118
REMARK   48  A    between atoms: _121  and  _123
REMARK   49  A    between atoms: _123  and  _124
REMARK   50  A    between atoms: _123  and  _126
REMARK   51  A    between atoms: _127  and  _128
REMARK   52  A    between atoms: _128  and  _129
REMARK   53  A    between atoms: _129  and  _130
REMARK   54  A    between atoms: _134  and  _136
REMARK   55  A    between atoms: _136  and  _137
REMARK   56  A    between atoms: _136  and  _139
REMARK   57  A    between atoms: _141  and  _143
REMARK   58  A    between atoms: _143  and  _144
REMARK   59  A    between atoms: _143  and  _146
REMARK   60  A    between atoms: _146  and  _147
REMARK   61  A    between atoms: _150  and  _152
REMARK   62  A    between atoms: _152  and  _153
REMARK   63  A    between atoms: _152  and  _155
REMARK   64  A    between atoms: _155  and  _156
REMARK   65  A    between atoms: _156  and  _157
REMARK   66  A    between atoms: _157  and  _158
REMARK   67  A    between atoms: _158  and  _159
REMARK   68  A    between atoms: _163  and  _165
REMARK   69  A    between atoms: _165  and  _166
REMARK   70  A    between atoms: _165  and  _168
REMARK   71  A    between atoms: _168  and  _169
REMARK   72  A    between atoms: _172  and  _174
REMARK   73  A    between atoms: _174  and  _175
REMARK   74  A    between atoms: _174  and  _177
REMARK   75  A    between atoms: _179  and  _181
REMARK   76  A    between atoms: _181  and  _182
REMARK   77  A    between atoms: _181  and  _184
REMARK   78  A    between atoms: _184  and  _185
REMARK   79  A    between atoms: _188  and  _190
REMARK   80  A    between atoms: _190  and  _191
REMARK   81  A    between atoms: _190  and  _193
REMARK   82  A    between atoms: _193  and  _194
REMARK   83  A    between atoms: _197  and  _199
REMARK   84  A    between atoms: _199  and  _200
REMARK   85  A    between atoms: _199  and  _202
REMARK   86  A    between atoms: _202  and  _203
REMARK   87  A    between atoms: _206  and  _208
REMARK   88  A    between atoms: _208  and  _209
REMARK   89  A    between atoms: _208  and  _211
REMARK   90  A    between atoms: _211  and  _212
REMARK   91  A    between atoms: _215  and  _217
REMARK   92  A    between atoms: _217  and  _218
REMARK   93  A    between atoms: _217  and  _220
REMARK   94  A    between atoms: _220  and  _221
REMARK   95  A    between atoms: _221  and  _222
REMARK   96  A    between atoms: _224  and  _226
REMARK   97  A    between atoms: _226  and  _227
REMARK   98  A    between atoms: _226  and  _229
REMARK   99  A    between atoms: _229  and  _230
REMARK  100  A    between atoms: _233  and  _235
REMARK  101  A    between atoms: _235  and  _236
REMARK  102  A    between atoms: _235  and  _238
REMARK  103  A    between atoms: _238  and  _239
REMARK  104  A    between atoms: _239  and  _240
REMARK  105  A    between atoms: _240  and  _241
REMARK  106  A    between atoms: _250  and  _252
REMARK  107  A    between atoms: _252  and  _253
REMARK  108  A    between atoms: _252  and  _255
REMARK  109  A    between atoms: _255  and  _256
REMARK  110  A    between atoms: _259  and  _261
REMARK  111  A    between atoms: _261  and  _262
REMARK  112  A    between atoms: _261  and  _264
REMARK  113  A    between atoms: _266  and  _268
REMARK  114  A    between atoms: _268  and  _269
REMARK  115  A    between atoms: _268  and  _271
REMARK  116  A    between atoms: _271  and  _272
REMARK  117  A    between atoms: _275  and  _277
REMARK  118  A    between atoms: _277  and  _278
REMARK  119  A    between atoms: _277  and  _280
REMARK  120  A    between atoms: _280  and  _281
REMARK  121  A    between atoms: _281  and  _282
REMARK  122  A    between atoms: _282  and  _283
REMARK  123  A    between atoms: _292  and  _294
REMARK  124  A    between atoms: _294  and  _295
REMARK  125  A    between atoms: _294  and  _297
REMARK  126  A    between atoms: _297  and  _298
REMARK  127  A    between atoms: _298  and  _299
REMARK  128  A    between atoms: _301  and  _303
REMARK  129  A    between atoms: _303  and  _304
REMARK  130  A    between atoms: _303  and  _306
REMARK  131  A    between atoms: _306  and  _307
REMARK  132  A    between atoms: _310  and  _312
REMARK  133  A    between atoms: _312  and  _313
REMARK  134  A    between atoms: _312  and  _315
REMARK  135  A    between atoms: _315  and  _316
REMARK  136  A    between atoms: _322  and  _324
REMARK  137  A    between atoms: _324  and  _325
REMARK  138  A    between atoms: _324  and  _327
REMARK  139  A    between atoms: _327  and  _328
REMARK  140  A    between atoms: _330  and  _332
REMARK  141  A    between atoms: _332  and  _333
REMARK  142  A    between atoms: _332  and  _335
REMARK  143  A    between atoms: _335  and  _336
REMARK  144  A    between atoms: _339  and  _341
REMARK  145  A    between atoms: _341  and  _342
REMARK  146  A    between atoms: _344  and  _346
REMARK  147  A    between atoms: _346  and  _347
REMARK  148  A    between atoms: _346  and  _349
REMARK  149  A    between atoms: _349  and  _350
REMARK  150  A    between atoms: _353  and  _355
REMARK  151  A    between atoms: _355  and  _356
REMARK  152  A    between atoms: _355  and  _358
REMARK  153  A    between atoms: _358  and  _359
REMARK  154  A    between atoms: _359  and  _360
REMARK  155  A    between atoms: _362  and  _364
REMARK  156  A    between atoms: _364  and  _365
REMARK  157  A    between atoms: _364  and  _367
REMARK  158  A    between atoms: _367  and  _368
REMARK  159  A    between atoms: _373  and  _375
REMARK  160  A    between atoms: _375  and  _376
REMARK  161  A    between atoms: _379  and  _381
REMARK  162  A    between atoms: _381  and  _382
REMARK  163  A    between atoms: _384  and  _386
REMARK  164  A    between atoms: _386  and  _387
REMARK  165  A    between atoms: _386  and  _389
REMARK  166  A    between atoms: _389  and  _390
REMARK  167  A    between atoms: _396  and  _398
REMARK  168  A    between atoms: _398  and  _399
REMARK  169  A    between atoms: _401  and  _403
REMARK  170  A    between atoms: _403  and  _404
REMARK  171  A    between atoms: _403  and  _406
REMARK  172  A    between atoms: _406  and  _407
REMARK  173  A    between atoms: _410  and  _412
REMARK  174  A    between atoms: _412  and  _413
REMARK  175  A    between atoms: _412  and  _415
REMARK  176  A    between atoms: _415  and  _416
REMARK  177  A    between atoms: _419  and  _421
REMARK  178  A    between atoms: _421  and  _422
REMARK  179  A    between atoms: _421  and  _424
REMARK  180  A    between atoms: _427  and  _429
REMARK  181  A    between atoms: _429  and  _430
REMARK  182  A    between atoms: _429  and  _432
REMARK  183  A    between atoms: _432  and  _433
REMARK  184  A    between atoms: _436  and  _438
REMARK  185  A    between atoms: _438  and  _439
REMARK  186  A    between atoms: _438  and  _441
REMARK  187  A    between atoms: _441  and  _442
REMARK  188  A    between atoms: _444  and  _446
REMARK  189  A    between atoms: _446  and  _447
REMARK  190  A    between atoms: _446  and  _449
REMARK  191  A    between atoms: _449  and  _450
REMARK  192  A    between atoms: _450  and  _451
REMARK  193  A    between atoms: _451  and  _452
REMARK  194  A    between atoms: _452  and  _453
REMARK  195  A    between atoms: _457  and  _459
REMARK  196  A    between atoms: _459  and  _460
REMARK  197  A    between atoms: _462  and  _464
REMARK  198  A    between atoms: _464  and  _465
REMARK  199  A    between atoms: _468  and  _470
REMARK  200  A    between atoms: _470  and  _471
REMARK  201  A    between atoms: _470  and  _473
REMARK  202  A    between atoms: _474  and  _475
REMARK  203  A    between atoms: _478  and  _480
REMARK  204  A    between atoms: _480  and  _481
REMARK  205  A    between atoms: _480  and  _483
REMARK  206  A    between atoms: _483  and  _484
REMARK  207  A    between atoms: _484  and  _485
REMARK  208  A    between atoms: _485  and  _486
REMARK  209  A    between atoms: _495  and  _497
REMARK  210  A    between atoms: _497  and  _498
REMARK  211  A    between atoms: _501  and  _503
REMARK  212  A    between atoms: _503  and  _504
REMARK  213  A    between atoms: _503  and  _506
REMARK  214  A    between atoms: _506  and  _507
REMARK  215  A    between atoms: _510  and  _512
REMARK  216  A    between atoms: _512  and  _513
REMARK  217  A    between atoms: _512  and  _515
REMARK  218  A    between atoms: _515  and  _516
REMARK  219  A    between atoms: _519  and  _521
REMARK  220  A    between atoms: _521  and  _522
REMARK  221  A    between atoms: _521  and  _524
REMARK  222  A    between atoms: _524  and  _525
REMARK  223  A    between atoms: _528  and  _530
REMARK  224  A    between atoms: _530  and  _531
REMARK  225  A    between atoms: _530  and  _533
REMARK  226  A    between atoms: _533  and  _534
REMARK  227  A    between atoms: _534  and  _535
REMARK  228  A    between atoms: _535  and  _536
REMARK  229  A    between atoms: _536  and  _537
REMARK  230  A    between atoms: _541  and  _543
REMARK  231  A    between atoms: _543  and  _544
REMARK  232  A    between atoms: _543  and  _546
REMARK  233  A    between atoms: _546  and  _547
REMARK  234  A    between atoms: _550  and  _552
REMARK  235  A    between atoms: _552  and  _553
REMARK  236  A    between atoms: _552  and  _555
REMARK  237  A    between atoms: _555  and  _556
REMARK  238  A    between atoms: _556  and  _557
REMARK  239  A    between atoms: _560  and  _561
REMARK  240  A    between atoms: _566  and  _568
REMARK  241  A    between atoms: _568  and  _569
REMARK  242  A    between atoms: _568  and  _571
REMARK  243  A    between atoms: _571  and  _572
REMARK  244  A    between atoms: _575  and  _577
REMARK  245  A    between atoms: _577  and  _578
REMARK  246  A    between atoms: _577  and  _580
REMARK  247  A    between atoms: _580  and  _581
REMARK  248  A    between atoms: _581  and  _582
REMARK  249  A    between atoms: _582  and  _583
REMARK  250  A    between atoms: _592  and  _594
REMARK  251  A    between atoms: _594  and  _595
REMARK  252  A    between atoms: _594  and  _597
REMARK  253  A    between atoms: _597  and  _598
REMARK  254  A    between atoms: _598  and  _599
REMARK  255  A    between atoms: _601  and  _603
REMARK  256  A    between atoms: _603  and  _604
REMARK  257  A    between atoms: _603  and  _606
REMARK  258  A    between atoms: _606  and  _607
REMARK                            x       y       z     vdW  Elec       q    Type
REMARK                         _______ _______ _______ _____ _____    ______ ____
ROOT
ATOM      1  CA  PHE A   2      32.303  17.480  95.423  0.00  0.00    +0.153 C 
ENDROOT
BRANCH   1   2
ATOM      2  C   PHE A   2      30.800  17.320  95.418  0.00  0.00    +0.244 C 
ATOM      3  O   PHE A   2      30.247  16.412  95.968  0.00  0.00    -0.273 OA
ATOM      4  N   PRO A   3      30.097  18.255  94.790  0.00  0.00    -0.273 N 
ATOM      5  CA  PRO A   3      28.633  18.107  94.736  0.00  0.00    +0.140 C 
ATOM      6  CB  PRO A   3      28.198  19.318  93.943  0.00  0.00    +0.030 C 
ATOM      7  CG  PRO A   3      29.319  20.303  94.019  0.00  0.00    +0.024 C 
ATOM      8  CD  PRO A   3      30.586  19.526  94.209  0.00  0.00    +0.094 C 
BRANCH   5   9
ATOM      9  C   PRO A   3      28.139  16.824  94.060  0.00  0.00    +0.227 C 
ATOM     10  O   PRO A   3      28.760  16.308  93.174  0.00  0.00    -0.286 OA
ENDBRANCH   5   9
ENDBRANCH   1   2
BRANCH   1  12
ATOM     11  C   THR A   1      33.923  18.881  96.593  0.00  0.00    +0.241 C 
ATOM     12  N   PHE A   2      32.755  18.252  96.563  0.00  0.00    -0.297 N 
ATOM     13  H   PHE A   2      32.136  18.316  97.396  0.00  0.00    +0.150 HD
ATOM     14  O   THR A   1      34.664  18.964  95.590  0.00  0.00    -0.274 OA
BRANCH  11  15
ATOM     15  CA  THR A   1      34.349  19.525  97.898  0.00  0.00    +0.172 C 
BRANCH  15  16
ATOM     16  N   THR A   1      33.406  19.279  98.998  0.00  0.00    -0.236 NA
ATOM     17  H   THR A   1      33.278  18.304  99.337  0.00  0.00    +0.142 HD
ENDBRANCH  15  16
BRANCH  15  18
ATOM     18  CB  THR A   1      35.774  19.077  98.234  0.00  0.00    +0.135 C 
ATOM     19  CG2 THR A   1      36.314  19.813  99.475  0.00  0.00    +0.034 C 
BRANCH  18  20
ATOM     20  OG1 THR A   1      35.836  17.666  98.467  0.00  0.00    -0.383 OA
ATOM     21  HG1 THR A   1      35.245  17.432  99.226  0.00  0.00    +0.210 HD
ENDBRANCH  18  20
ENDBRANCH  15  18
ENDBRANCH  11  15
ENDBRANCH   1  12
BRANCH   1  22
ATOM     22  CB  PHE A   2      33.022  16.129  95.361  0.00  0.00    +0.055 C 
BRANCH  22  23
ATOM     23  CG  PHE A   2      32.869  15.509  93.950  0.00  0.00    -0.020 A 
ATOM     24  CD2 PHE A   2      32.174  14.350  93.741  0.00  0.00    -0.004 A 
ATOM     25  CE2 PHE A   2      32.023  13.805  92.491  0.00  0.00    -0.000 A 
ATOM     26  CZ  PHE A   2      32.596  14.469  91.412  0.00  0.00    -0.000 A 
ATOM     27  CE1 PHE A   2      33.318  15.640  91.605  0.00  0.00    -0.000 A 
ATOM     28  CD1 PHE A   2      33.432  16.147  92.871  0.00  0.00    -0.004 A 
ENDBRANCH  22  23
ENDBRANCH   1  22
TORSDOF 9
REMARK  Name = ../refined-set-2016/1fcy/1fcy_pocket.pdb
REMARK  258 active torsions:
REMARK  status: ('A' for Active; 'I' for Inactive)
REMARK    1  A    between atoms: _1  and  _3
REMARK    2  A    between atoms: _3  and  _4
REMARK    3  A    between atoms: _3  and  _6
REMARK    4  A    between atoms: _6  and  _7
REMARK    5  A    between atoms: _10  and  _12
REMARK    6  A    between atoms: _12  and  _13
REMARK    7  A    between atoms: _12  and  _15
REMARK    8  A    between atoms: _15  and  _16
REMARK    9  A    between atoms: _23  and  _24
REMARK   10  A    between atoms: _29  and  _31
REMARK   11  A    between atoms: _31  and  _32
REMARK   12  A    between atoms: _31  and  _34
REMARK   13  A    between atoms: _34  and  _35
REMARK   14  A    between atoms: _38  and  _40
REMARK   15  A    between atoms: _40  and  _41
REMARK   16  A    between atoms: _40  and  _43
REMARK   17  A    between atoms: _43  and  _44
REMARK   18  A    between atoms: _54  and  _56
REMARK   19  A    between atoms: _56  and  _57
REMARK   20  A    between atoms: _56  and  _59
REMARK   21  A    between atoms: _59  and  _60
REMARK   22  A    between atoms: _60  and  _61
REMARK   23  A    between atoms: _61  and  _62
REMARK   24  A    between atoms: _62  and  _63
REMARK   25  A    between atoms: _67  and  _69
REMARK   26  A    between atoms: _69  and  _70
REMARK   27  A    between atoms: _69  and  _72
REMARK   28  A    between atoms: _72  and  _73
REMARK   29  A    between atoms: _79  and  _81
REMARK   30  A    between atoms: _81  and  _82
REMARK   31  A    between atoms: _81  and  _84
REMARK   32  A    between atoms: _84  and  _85
REMARK   33  A    between atoms: _87  and  _89
REMARK   34  A    between atoms: _89  and  _90
REMARK   35  A    between atoms: _89  and  _92
REMARK   36  A    between atoms: _92  and  _93
REMARK   37  A    between atoms: _93  and  _94
REMARK   38  A    between atoms: _97  and  _99
REMARK   39  A    between atoms: _99  and  _100
REMARK   40  A    between atoms: _99  and  _102
REMARK   41  A    between atoms: _102  and  _103
REMARK   42  A    between atoms: _106  and  _108
REMARK   43  A    between atoms: _108  and  _109
REMARK   44  A    between atoms: _112  and  _114
REMARK   45  A    between atoms: _114  and  _115
REMARK   46  A    between atoms: _114  and  _117
REMARK   47  A    between atoms: _117  and  _118
REMARK   48  A    between atoms: _121  and  _123
REMARK   49  A    between atoms: _123  and  _124
REMARK   50  A    between atoms: _123  and  _126
REMARK   51  A    between atoms: _127  and  _128
REMARK   52  A    between atoms: _128  and  _129
REMARK   53  A    between atoms: _129  and  _130
REMARK   54  A    between atoms: _134  and  _136
REMARK   55  A    between atoms: _136  and  _137
REMARK   56  A    between atoms: _136  and  _139
REMARK   57  A    between atoms: _141  and  _143
REMARK   58  A    between atoms: _143  and  _144
REMARK   59  A    between atoms: _143  and  _146
REMARK   60  A    between atoms: _146  and  _147
REMARK   61  A    between atoms: _150  and  _152
REMARK   62  A    between atoms: _152  and  _153
REMARK   63  A    between atoms: _152  and  _155
REMARK   64  A    between atoms: _155  and  _156
REMARK   65  A    between atoms: _156  and  _157
REMARK   66  A    between atoms: _157  and  _158
REMARK   67  A    between atoms: _158  and  _159
REMARK   68  A    between atoms: _163  and  _165
REMARK   69  A    between atoms: _165  and  _166
REMARK   70  A    between atoms: _165  and  _168
REMARK   71  A    between atoms: _168  and  _169
REMARK   72  A    between atoms: _172  and  _174
REMARK   73  A    between atoms: _174  and  _175
REMARK   74  A    between atoms: _174  and  _177
REMARK   75  A    between atoms: _179  and  _181
REMARK   76  A    between atoms: _181  and  _182
REMARK   77  A    between atoms: _181  and  _184
REMARK   78  A    between atoms: _184  and  _185
REMARK   79  A    between atoms: _188  and  _190
REMARK   80  A    between atoms: _190  and  _191
REMARK   81  A    between atoms: _190  and  _193
REMARK   82  A    between atoms: _193  and  _194
REMARK   83  A    between atoms: _197  and  _199
REMARK   84  A    between atoms: _199  and  _200
REMARK   85  A    between atoms: _199  and  _202
REMARK   86  A    between atoms: _202  and  _203
REMARK   87  A    between atoms: _206  and  _208
REMARK   88  A    between atoms: _208  and  _209
REMARK   89  A    between atoms: _208  and  _211
REMARK   90  A    between atoms: _211  and  _212
REMARK   91  A    between atoms: _215  and  _217
REMARK   92  A    between atoms: _217  and  _218
REMARK   93  A    between atoms: _217  and  _220
REMARK   94  A    between atoms: _220  and  _221
REMARK   95  A    between atoms: _221  and  _222
REMARK   96  A    between atoms: _224  and  _226
REMARK   97  A    between atoms: _226  and  _227
REMARK   98  A    between atoms: _226  and  _229
REMARK   99  A    between atoms: _229  and  _230
REMARK  100  A    between atoms: _233  and  _235
REMARK  101  A    between atoms: _235  and  _236
REMARK  102  A    between atoms: _235  and  _238
REMARK  103  A    between atoms: _238  and  _239
REMARK  104  A    between atoms: _239  and  _240
REMARK  105  A    between atoms: _240  and  _241
REMARK  106  A    between atoms: _250  and  _252
REMARK  107  A    between atoms: _252  and  _253
REMARK  108  A    between atoms: _252  and  _255
REMARK  109  A    between atoms: _255  and  _256
REMARK  110  A    between atoms: _259  and  _261
REMARK  111  A    between atoms: _261  and  _262
REMARK  112  A    between atoms: _261  and  _264
REMARK  113  A    between atoms: _266  and  _268
REMARK  114  A    between atoms: _268  and  _269
REMARK  115  A    between atoms: _268  and  _271
REMARK  116  A    between atoms: _271  and  _272
REMARK  117  A    between atoms: _275  and  _277
REMARK  118  A    between atoms: _277  and  _278
REMARK  119  A    between atoms: _277  and  _280
REMARK  120  A    between atoms: _280  and  _281
REMARK  121  A    between atoms: _281  and  _282
REMARK  122  A    between atoms: _282  and  _283
REMARK  123  A    between atoms: _292  and  _294
REMARK  124  A    between atoms: _294  and  _295
REMARK  125  A    between atoms: _294  and  _297
REMARK  126  A    between atoms: _297  and  _298
REMARK  127  A    between atoms: _298  and  _299
REMARK  128  A    between atoms: _301  and  _303
REMARK  129  A    between atoms: _303  and  _304
REMARK  130  A    between atoms: _303  and  _306
REMARK  131  A    between atoms: _306  and  _307
REMARK  132  A    between atoms: _310  and  _312
REMARK  133  A    between atoms: _312  and  _313
REMARK  134  A    between atoms: _312  and  _315
REMARK  135  A    between atoms: _315  and  _316
REMARK  136  A    between atoms: _322  and  _324
REMARK  137  A    between atoms: _324  and  _325
REMARK  138  A    between atoms: _324  and  _327
REMARK  139  A    between atoms: _327  and  _328
REMARK  140  A    between atoms: _330  and  _332
REMARK  141  A    between atoms: _332  and  _333
REMARK  142  A    between atoms: _332  and  _335
REMARK  143  A    between atoms: _335  and  _336
REMARK  144  A    between atoms: _339  and  _341
REMARK  145  A    between atoms: _341  and  _342
REMARK  146  A    between atoms: _344  and  _346
REMARK  147  A    between atoms: _346  and  _347
REMARK  148  A    between atoms: _346  and  _349
REMARK  149  A    between atoms: _349  and  _350
REMARK  150  A    between atoms: _353  and  _355
REMARK  151  A    between atoms: _355  and  _356
REMARK  152  A    between atoms: _355  and  _358
REMARK  153  A    between atoms: _358  and  _359
REMARK  154  A    between atoms: _359  and  _360
REMARK  155  A    between atoms: _362  and  _364
REMARK  156  A    between atoms: _364  and  _365
REMARK  157  A    between atoms: _364  and  _367
REMARK  158  A    between atoms: _367  and  _368
REMARK  159  A    between atoms: _373  and  _375
REMARK  160  A    between atoms: _375  and  _376
REMARK  161  A    between atoms: _379  and  _381
REMARK  162  A    between atoms: _381  and  _382
REMARK  163  A    between atoms: _384  and  _386
REMARK  164  A    between atoms: _386  and  _387
REMARK  165  A    between atoms: _386  and  _389
REMARK  166  A    between atoms: _389  and  _390
REMARK  167  A    between atoms: _396  and  _398
REMARK  168  A    between atoms: _398  and  _399
REMARK  169  A    between atoms: _401  and  _403
REMARK  170  A    between atoms: _403  and  _404
REMARK  171  A    between atoms: _403  and  _406
REMARK  172  A    between atoms: _406  and  _407
REMARK  173  A    between atoms: _410  and  _412
REMARK  174  A    between atoms: _412  and  _413
REMARK  175  A    between atoms: _412  and  _415
REMARK  176  A    between atoms: _415  and  _416
REMARK  177  A    between atoms: _419  and  _421
REMARK  178  A    between atoms: _421  and  _422
REMARK  179  A    between atoms: _421  and  _424
REMARK  180  A    between atoms: _427  and  _429
REMARK  181  A    between atoms: _429  and  _430
REMARK  182  A    between atoms: _429  and  _432
REMARK  183  A    between atoms: _432  and  _433
REMARK  184  A    between atoms: _436  and  _438
REMARK  185  A    between atoms: _438  and  _439
REMARK  186  A    between atoms: _438  and  _441
REMARK  187  A    between atoms: _441  and  _442
REMARK  188  A    between atoms: _444  and  _446
REMARK  189  A    between atoms: _446  and  _447
REMARK  190  A    between atoms: _446  and  _449
REMARK  191  A    between atoms: _449  and  _450
REMARK  192  A    between atoms: _450  and  _451
REMARK  193  A    between atoms: _451  and  _452
REMARK  194  A    between atoms: _452  and  _453
REMARK  195  A    between atoms: _457  and  _459
REMARK  196  A    between atoms: _459  and  _460
REMARK  197  A    between atoms: _462  and  _464
REMARK  198  A    between atoms: _464  and  _465
REMARK  199  A    between atoms: _468  and  _470
REMARK  200  A    between atoms: _470  and  _471
REMARK  201  A    between atoms: _470  and  _473
REMARK  202  A    between atoms: _474  and  _475
REMARK  203  A    between atoms: _478  and  _480
REMARK  204  A    between atoms: _480  and  _481
REMARK  205  A    between atoms: _480  and  _483
REMARK  206  A    between atoms: _483  and  _484
REMARK  207  A    between atoms: _484  and  _485
REMARK  208  A    between atoms: _485  and  _486
REMARK  209  A    between atoms: _495  and  _497
REMARK  210  A    between atoms: _497  and  _498
REMARK  211  A    between atoms: _501  and  _503
REMARK  212  A    between atoms: _503  and  _504
REMARK  213  A    between atoms: _503  and  _506
REMARK  214  A    between atoms: _506  and  _507
REMARK  215  A    between atoms: _510  and  _512
REMARK  216  A    between atoms: _512  and  _513
REMARK  217  A    between atoms: _512  and  _515
REMARK  218  A    between atoms: _515  and  _516
REMARK  219  A    between atoms: _519  and  _521
REMARK  220  A    between atoms: _521  and  _522
REMARK  221  A    between atoms: _521  and  _524
REMARK  222  A    between atoms: _524  and  _525
REMARK  223  A    between atoms: _528  and  _530
REMARK  224  A    between atoms: _530  and  _531
REMARK  225  A    between atoms: _530  and  _533
REMARK  226  A    between atoms: _533  and  _534
REMARK  227  A    between atoms: _534  and  _535
REMARK  228  A    between atoms: _535  and  _536
REMARK  229  A    between atoms: _536  and  _537
REMARK  230  A    between atoms: _541  and  _543
REMARK  231  A    between atoms: _543  and  _544
REMARK  232  A    between atoms: _543  and  _546
REMARK  233  A    between atoms: _546  and  _547
REMARK  234  A    between atoms: _550  and  _552
REMARK  235  A    between atoms: _552  and  _553
REMARK  236  A    between atoms: _552  and  _555
REMARK  237  A    between atoms: _555  and  _556
REMARK  238  A    between atoms: _556  and  _557
REMARK  239  A    between atoms: _560  and  _561
REMARK  240  A    between atoms: _566  and  _568
REMARK  241  A    between atoms: _568  and  _569
REMARK  242  A    between atoms: _568  and  _571
REMARK  243  A    between atoms: _571  and  _572
REMARK  244  A    between atoms: _575  and  _577
REMARK  245  A    between atoms: _577  and  _578
REMARK  246  A    between atoms: _577  and  _580
REMARK  247  A    between atoms: _580  and  _581
REMARK  248  A    between atoms: _581  and  _582
REMARK  249  A    between atoms: _582  and  _583
REMARK  250  A    between atoms: _592  and  _594
REMARK  251  A    between atoms: _594  and  _595
REMARK  252  A    between atoms: _594  and  _597
REMARK  253  A    between atoms: _597  and  _598
REMARK  254  A    between atoms: _598  and  _599
REMARK  255  A    between atoms: _601  and  _603
REMARK  256  A    between atoms: _603  and  _604
REMARK  257  A    between atoms: _603  and  _606
REMARK  258  A    between atoms: _606  and  _607
REMARK                            x       y       z     vdW  Elec       q    Type
REMARK                         _______ _______ _______ _____ _____    ______ ____
ROOT
ATOM      1  CA  LEU A   1      23.722  20.015  90.102  0.00  0.00    +0.133 C 
ENDROOT
BRANCH   1   2
ATOM      2  N   LEU A   1      23.276  19.074  91.132  0.00  0.00    -0.239 NA
ATOM      3  H   LEU A   1      23.321  18.045  90.988  0.00  0.00    +0.142 HD
ENDBRANCH   1   2
BRANCH   1   4
ATOM      4  C   LEU A   1      22.708  20.338  89.027  0.00  0.00    +0.224 C 
ATOM      5  O   LEU A   1      21.967  19.463  88.574  0.00  0.00    -0.287 OA
ENDBRANCH   1   4
BRANCH   1   6
ATOM      6  CB  LEU A   1      24.975  19.407  89.428  0.00  0.00    +0.025 C 
BRANCH   6   7
ATOM      7  CG  LEU A   1      26.224  19.316  90.329  0.00  0.00    +0.002 C 
ATOM      8  CD2 LEU A   1      26.776  20.676  90.652  0.00  0.00    +0.000 C 
ATOM      9  CD1 LEU A   1      27.226  18.449  89.605  0.00  0.00    +0.000 C 
ENDBRANCH   6   7
ENDBRANCH   1   6
TORSDOF 4
REMARK  Name = ../refined-set-2016/1fcy/1fcy_pocket.pdb
REMARK  258 active torsions:
REMARK  status: ('A' for Active; 'I' for Inactive)
REMARK    1  A    between atoms: _1  and  _3
REMARK    2  A    between atoms: _3  and  _4
REMARK    3  A    between atoms: _3  and  _6
REMARK    4  A    between atoms: _6  and  _7
REMARK    5  A    between atoms: _10  and  _12
REMARK    6  A    between atoms: _12  and  _13
REMARK    7  A    between atoms: _12  and  _15
REMARK    8  A    between atoms: _15  and  _16
REMARK    9  A    between atoms: _23  and  _24
REMARK   10  A    between atoms: _29  and  _31
REMARK   11  A    between atoms: _31  and  _32
REMARK   12  A    between atoms: _31  and  _34
REMARK   13  A    between atoms: _34  and  _35
REMARK   14  A    between atoms: _38  and  _40
REMARK   15  A    between atoms: _40  and  _41
REMARK   16  A    between atoms: _40  and  _43
REMARK   17  A    between atoms: _43  and  _44
REMARK   18  A    between atoms: _54  and  _56
REMARK   19  A    between atoms: _56  and  _57
REMARK   20  A    between atoms: _56  and  _59
REMARK   21  A    between atoms: _59  and  _60
REMARK   22  A    between atoms: _60  and  _61
REMARK   23  A    between atoms: _61  and  _62
REMARK   24  A    between atoms: _62  and  _63
REMARK   25  A    between atoms: _67  and  _69
REMARK   26  A    between atoms: _69  and  _70
REMARK   27  A    between atoms: _69  and  _72
REMARK   28  A    between atoms: _72  and  _73
REMARK   29  A    between atoms: _79  and  _81
REMARK   30  A    between atoms: _81  and  _82
REMARK   31  A    between atoms: _81  and  _84
REMARK   32  A    between atoms: _84  and  _85
REMARK   33  A    between atoms: _87  and  _89
REMARK   34  A    between atoms: _89  and  _90
REMARK   35  A    between atoms: _89  and  _92
REMARK   36  A    between atoms: _92  and  _93
REMARK   37  A    between atoms: _93  and  _94
REMARK   38  A    between atoms: _97  and  _99
REMARK   39  A    between atoms: _99  and  _100
REMARK   40  A    between atoms: _99  and  _102
REMARK   41  A    between atoms: _102  and  _103
REMARK   42  A    between atoms: _106  and  _108
REMARK   43  A    between atoms: _108  and  _109
REMARK   44  A    between atoms: _112  and  _114
REMARK   45  A    between atoms: _114  and  _115
REMARK   46  A    between atoms: _114  and  _117
REMARK   47  A    between atoms: _117  and  _118
REMARK   48  A    between atoms: _121  and  _123
REMARK   49  A    between atoms: _123  and  _124
REMARK   50  A    between atoms: _123  and  _126
REMARK   51  A    between atoms: _127  and  _128
REMARK   52  A    between atoms: _128  and  _129
REMARK   53  A    between atoms: _129  and  _130
REMARK   54  A    between atoms: _134  and  _136
REMARK   55  A    between atoms: _136  and  _137
REMARK   56  A    between atoms: _136  and  _139
REMARK   57  A    between atoms: _141  and  _143
REMARK   58  A    between atoms: _143  and  _144
REMARK   59  A    between atoms: _143  and  _146
REMARK   60  A    between atoms: _146  and  _147
REMARK   61  A    between atoms: _150  and  _152
REMARK   62  A    between atoms: _152  and  _153
REMARK   63  A    between atoms: _152  and  _155
REMARK   64  A    between atoms: _155  and  _156
REMARK   65  A    between atoms: _156  and  _157
REMARK   66  A    between atoms: _157  and  _158
REMARK   67  A    between atoms: _158  and  _159
REMARK   68  A    between atoms: _163  and  _165
REMARK   69  A    between atoms: _165  and  _166
REMARK   70  A    between atoms: _165  and  _168
REMARK   71  A    between atoms: _168  and  _169
REMARK   72  A    between atoms: _172  and  _174
REMARK   73  A    between atoms: _174  and  _175
REMARK   74  A    between atoms: _174  and  _177
REMARK   75  A    between atoms: _179  and  _181
REMARK   76  A    between atoms: _181  and  _182
REMARK   77  A    between atoms: _181  and  _184
REMARK   78  A    between atoms: _184  and  _185
REMARK   79  A    between atoms: _188  and  _190
REMARK   80  A    between atoms: _190  and  _191
REMARK   81  A    between atoms: _190  and  _193
REMARK   82  A    between atoms: _193  and  _194
REMARK   83  A    between atoms: _197  and  _199
REMARK   84  A    between atoms: _199  and  _200
REMARK   85  A    between atoms: _199  and  _202
REMARK   86  A    between atoms: _202  and  _203
REMARK   87  A    between atoms: _206  and  _208
REMARK   88  A    between atoms: _208  and  _209
REMARK   89  A    between atoms: _208  and  _211
REMARK   90  A    between atoms: _211  and  _212
REMARK   91  A    between atoms: _215  and  _217
REMARK   92  A    between atoms: _217  and  _218
REMARK   93  A    between atoms: _217  and  _220
REMARK   94  A    between atoms: _220  and  _221
REMARK   95  A    between atoms: _221  and  _222
REMARK   96  A    between atoms: _224  and  _226
REMARK   97  A    between atoms: _226  and  _227
REMARK   98  A    between atoms: _226  and  _229
REMARK   99  A    between atoms: _229  and  _230
REMARK  100  A    between atoms: _233  and  _235
REMARK  101  A    between atoms: _235  and  _236
REMARK  102  A    between atoms: _235  and  _238
REMARK  103  A    between atoms: _238  and  _239
REMARK  104  A    between atoms: _239  and  _240
REMARK  105  A    between atoms: _240  and  _241
REMARK  106  A    between atoms: _250  and  _252
REMARK  107  A    between atoms: _252  and  _253
REMARK  108  A    between atoms: _252  and  _255
REMARK  109  A    between atoms: _255  and  _256
REMARK  110  A    between atoms: _259  and  _261
REMARK  111  A    between atoms: _261  and  _262
REMARK  112  A    between atoms: _261  and  _264
REMARK  113  A    between atoms: _266  and  _268
REMARK  114  A    between atoms: _268  and  _269
REMARK  115  A    between atoms: _268  and  _271
REMARK  116  A    between atoms: _271  and  _272
REMARK  117  A    between atoms: _275  and  _277
REMARK  118  A    between atoms: _277  and  _278
REMARK  119  A    between atoms: _277  and  _280
REMARK  120  A    between atoms: _280  and  _281
REMARK  121  A    between atoms: _281  and  _282
REMARK  122  A    between atoms: _282  and  _283
REMARK  123  A    between atoms: _292  and  _294
REMARK  124  A    between atoms: _294  and  _295
REMARK  125  A    between atoms: _294  and  _297
REMARK  126  A    between atoms: _297  and  _298
REMARK  127  A    between atoms: _298  and  _299
REMARK  128  A    between atoms: _301  and  _303
REMARK  129  A    between atoms: _303  and  _304
REMARK  130  A    between atoms: _303  and  _306
REMARK  131  A    between atoms: _306  and  _307
REMARK  132  A    between atoms: _310  and  _312
REMARK  133  A    between atoms: _312  and  _313
REMARK  134  A    between atoms: _312  and  _315
REMARK  135  A    between atoms: _315  and  _316
REMARK  136  A    between atoms: _322  and  _324
REMARK  137  A    between atoms: _324  and  _325
REMARK  138  A    between atoms: _324  and  _327
REMARK  139  A    between atoms: _327  and  _328
REMARK  140  A    between atoms: _330  and  _332
REMARK  141  A    between atoms: _332  and  _333
REMARK  142  A    between atoms: _332  and  _335
REMARK  143  A    between atoms: _335  and  _336
REMARK  144  A    between atoms: _339  and  _341
REMARK  145  A    between atoms: _341  and  _342
REMARK  146  A    between atoms: _344  and  _346
REMARK  147  A    between atoms: _346  and  _347
REMARK  148  A    between atoms: _346  and  _349
REMARK  149  A    between atoms: _349  and  _350
REMARK  150  A    between atoms: _353  and  _355
REMARK  151  A    between atoms: _355  and  _356
REMARK  152  A    between atoms: _355  and  _358
REMARK  153  A    between atoms: _358  and  _359
REMARK  154  A    between atoms: _359  and  _360
REMARK  155  A    between atoms: _362  and  _364
REMARK  156  A    between atoms: _364  and  _365
REMARK  157  A    between atoms: _364  and  _367
REMARK  158  A    between atoms: _367  and  _368
REMARK  159  A    between atoms: _373  and  _375
REMARK  160  A    between atoms: _375  and  _376
REMARK  161  A    between atoms: _379  and  _381
REMARK  162  A    between atoms: _381  and  _382
REMARK  163  A    between atoms: _384  and  _386
REMARK  164  A    between atoms: _386  and  _387
REMARK  165  A    between atoms: _386  and  _389
REMARK  166  A    between atoms: _389  and  _390
REMARK  167  A    between atoms: _396  and  _398
REMARK  168  A    between atoms: _398  and  _399
REMARK  169  A    between atoms: _401  and  _403
REMARK  170  A    between atoms: _403  and  _404
REMARK  171  A    between atoms: _403  and  _406
REMARK  172  A    between atoms: _406  and  _407
REMARK  173  A    between atoms: _410  and  _412
REMARK  174  A    between atoms: _412  and  _413
REMARK  175  A    between atoms: _412  and  _415
REMARK  176  A    between atoms: _415  and  _416
REMARK  177  A    between atoms: _419  and  _421
REMARK  178  A    between atoms: _421  and  _422
REMARK  179  A    between atoms: _421  and  _424
REMARK  180  A    between atoms: _427  and  _429
REMARK  181  A    between atoms: _429  and  _430
REMARK  182  A    between atoms: _429  and  _432
REMARK  183  A    between atoms: _432  and  _433
REMARK  184  A    between atoms: _436  and  _438
REMARK  185  A    between atoms: _438  and  _439
REMARK  186  A    between atoms: _438  and  _441
REMARK  187  A    between atoms: _441  and  _442
REMARK  188  A    between atoms: _444  and  _446
REMARK  189  A    between atoms: _446  and  _447
REMARK  190  A    between atoms: _446  and  _449
REMARK  191  A    between atoms: _449  and  _450
REMARK  192  A    between atoms: _450  and  _451
REMARK  193  A    between atoms: _451  and  _452
REMARK  194  A    between atoms: _452  and  _453
REMARK  195  A    between atoms: _457  and  _459
REMARK  196  A    between atoms: _459  and  _460
REMARK  197  A    between atoms: _462  and  _464
REMARK  198  A    between atoms: _464  and  _465
REMARK  199  A    between atoms: _468  and  _470
REMARK  200  A    between atoms: _470  and  _471
REMARK  201  A    between atoms: _470  and  _473
REMARK  202  A    between atoms: _474  and  _475
REMARK  203  A    between atoms: _478  and  _480
REMARK  204  A    between atoms: _480  and  _481
REMARK  205  A    between atoms: _480  and  _483
REMARK  206  A    between atoms: _483  and  _484
REMARK  207  A    between atoms: _484  and  _485
REMARK  208  A    between atoms: _485  and  _486
REMARK  209  A    between atoms: _495  and  _497
REMARK  210  A    between atoms: _497  and  _498
REMARK  211  A    between atoms: _501  and  _503
REMARK  212  A    between atoms: _503  and  _504
REMARK  213  A    between atoms: _503  and  _506
REMARK  214  A    between atoms: _506  and  _507
REMARK  215  A    between atoms: _510  and  _512
REMARK  216  A    between atoms: _512  and  _513
REMARK  217  A    between atoms: _512  and  _515
REMARK  218  A    between atoms: _515  and  _516
REMARK  219  A    between atoms: _519  and  _521
REMARK  220  A    between atoms: _521  and  _522
REMARK  221  A    between atoms: _521  and  _524
REMARK  222  A    between atoms: _524  and  _525
REMARK  223  A    between atoms: _528  and  _530
REMARK  224  A    between atoms: _530  and  _531
REMARK  225  A    between atoms: _530  and  _533
REMARK  226  A    between atoms: _533  and  _534
REMARK  227  A    between atoms: _534  and  _535
REMARK  228  A    between atoms: _535  and  _536
REMARK  229  A    between atoms: _536  and  _537
REMARK  230  A    between atoms: _541  and  _543
REMARK  231  A    between atoms: _543  and  _544
REMARK  232  A    between atoms: _543  and  _546
REMARK  233  A    between atoms: _546  and  _547
REMARK  234  A    between atoms: _550  and  _552
REMARK  235  A    between atoms: _552  and  _553
REMARK  236  A    between atoms: _552  and  _555
REMARK  237  A    between atoms: _555  and  _556
REMARK  238  A    between atoms: _556  and  _557
REMARK  239  A    between atoms: _560  and  _561
REMARK  240  A    between atoms: _566  and  _568
REMARK  241  A    between atoms: _568  and  _569
REMARK  242  A    between atoms: _568  and  _571
REMARK  243  A    between atoms: _571  and  _572
REMARK  244  A    between atoms: _575  and  _577
REMARK  245  A    between atoms: _577  and  _578
REMARK  246  A    between atoms: _577  and  _580
REMARK  247  A    between atoms: _580  and  _581
REMARK  248  A    between atoms: _581  and  _582
REMARK  249  A    between atoms: _582  and  _583
REMARK  250  A    between atoms: _592  and  _594
REMARK  251  A    between atoms: _594  and  _595
REMARK  252  A    between atoms: _594  and  _597
REMARK  253  A    between atoms: _597  and  _598
REMARK  254  A    between atoms: _598  and  _599
REMARK  255  A    between atoms: _601  and  _603
REMARK  256  A    between atoms: _603  and  _604
REMARK  257  A    between atoms: _603  and  _606
REMARK  258  A    between atoms: _606  and  _607
REMARK                            x       y       z     vdW  Elec       q    Type
REMARK                         _______ _______ _______ _____ _____    ______ ____
ROOT
ATOM      1  CG  TRP A   1      42.252  21.388  75.768  0.00  0.00    -0.002 A 
ATOM      2  CD2 TRP A   1      42.841  20.611  76.826  0.00  0.00    +0.013 A 
ATOM      3  CE3 TRP A   1      42.524  19.417  77.485  0.00  0.00    +0.001 A 
ATOM      4  CZ3 TRP A   1      43.332  18.940  78.499  0.00  0.00    +0.000 A 
ATOM      5  CH2 TRP A   1      44.490  19.636  78.895  0.00  0.00    +0.001 A 
ATOM      6  CZ2 TRP A   1      44.828  20.801  78.287  0.00  0.00    +0.017 A 
ATOM      7  CE2 TRP A   1      44.004  21.275  77.259  0.00  0.00    +0.056 A 
ATOM      8  NE1 TRP A   1      44.102  22.391  76.482  0.00  0.00    -0.352 N 
ATOM      9  HE1 TRP A   1      44.868  23.092  76.549  0.00  0.00    +0.166 HD
ATOM     10  CD1 TRP A   1      43.060  22.464  75.606  0.00  0.00    +0.068 A 
ENDROOT
BRANCH   1  11
ATOM     11  CB  TRP A   1      40.983  21.057  75.028  0.00  0.00    +0.053 C 
BRANCH  11  12
ATOM     12  CA  TRP A   1      39.741  21.234  75.950  0.00  0.00    +0.137 C 
BRANCH  12  13
ATOM     13  N   TRP A   1      38.520  21.387  75.147  0.00  0.00    -0.239 NA
ATOM     14  H   TRP A   1      38.585  21.419  74.110  0.00  0.00    +0.142 HD
ENDBRANCH  12  13
BRANCH  12  15
ATOM     15  C   TRP A   1      39.904  22.394  76.913  0.00  0.00    +0.224 C 
ATOM     16  O   TRP A   1      40.222  22.202  78.063  0.00  0.00    -0.287 OA
ENDBRANCH  12  15
ENDBRANCH  11  12
ENDBRANCH   1  11
TORSDOF 4
REMARK  Name = ../refined-set-2016/1fcy/1fcy_pocket.pdb
REMARK  258 active torsions:
REMARK  status: ('A' for Active; 'I' for Inactive)
REMARK    1  A    between atoms: _1  and  _3
REMARK    2  A    between atoms: _3  and  _4
REMARK    3  A    between atoms: _3  and  _6
REMARK    4  A    between atoms: _6  and  _7
REMARK    5  A    between atoms: _10  and  _12
REMARK    6  A    between atoms: _12  and  _13
REMARK    7  A    between atoms: _12  and  _15
REMARK    8  A    between atoms: _15  and  _16
REMARK    9  A    between atoms: _23  and  _24
REMARK   10  A    between atoms: _29  and  _31
REMARK   11  A    between atoms: _31  and  _32
REMARK   12  A    between atoms: _31  and  _34
REMARK   13  A    between atoms: _34  and  _35
REMARK   14  A    between atoms: _38  and  _40
REMARK   15  A    between atoms: _40  and  _41
REMARK   16  A    between atoms: _40  and  _43
REMARK   17  A    between atoms: _43  and  _44
REMARK   18  A    between atoms: _54  and  _56
REMARK   19  A    between atoms: _56  and  _57
REMARK   20  A    between atoms: _56  and  _59
REMARK   21  A    between atoms: _59  and  _60
REMARK   22  A    between atoms: _60  and  _61
REMARK   23  A    between atoms: _61  and  _62
REMARK   24  A    between atoms: _62  and  _63
REMARK   25  A    between atoms: _67  and  _69
REMARK   26  A    between atoms: _69  and  _70
REMARK   27  A    between atoms: _69  and  _72
REMARK   28  A    between atoms: _72  and  _73
REMARK   29  A    between atoms: _79  and  _81
REMARK   30  A    between atoms: _81  and  _82
REMARK   31  A    between atoms: _81  and  _84
REMARK   32  A    between atoms: _84  and  _85
REMARK   33  A    between atoms: _87  and  _89
REMARK   34  A    between atoms: _89  and  _90
REMARK   35  A    between atoms: _89  and  _92
REMARK   36  A    between atoms: _92  and  _93
REMARK   37  A    between atoms: _93  and  _94
REMARK   38  A    between atoms: _97  and  _99
REMARK   39  A    between atoms: _99  and  _100
REMARK   40  A    between atoms: _99  and  _102
REMARK   41  A    between atoms: _102  and  _103
REMARK   42  A    between atoms: _106  and  _108
REMARK   43  A    between atoms: _108  and  _109
REMARK   44  A    between atoms: _112  and  _114
REMARK   45  A    between atoms: _114  and  _115
REMARK   46  A    between atoms: _114  and  _117
REMARK   47  A    between atoms: _117  and  _118
REMARK   48  A    between atoms: _121  and  _123
REMARK   49  A    between atoms: _123  and  _124
REMARK   50  A    between atoms: _123  and  _126
REMARK   51  A    between atoms: _127  and  _128
REMARK   52  A    between atoms: _128  and  _129
REMARK   53  A    between atoms: _129  and  _130
REMARK   54  A    between atoms: _134  and  _136
REMARK   55  A    between atoms: _136  and  _137
REMARK   56  A    between atoms: _136  and  _139
REMARK   57  A    between atoms: _141  and  _143
REMARK   58  A    between atoms: _143  and  _144
REMARK   59  A    between atoms: _143  and  _146
REMARK   60  A    between atoms: _146  and  _147
REMARK   61  A    between atoms: _150  and  _152
REMARK   62  A    between atoms: _152  and  _153
REMARK   63  A    between atoms: _152  and  _155
REMARK   64  A    between atoms: _155  and  _156
REMARK   65  A    between atoms: _156  and  _157
REMARK   66  A    between atoms: _157  and  _158
REMARK   67  A    between atoms: _158  and  _159
REMARK   68  A    between atoms: _163  and  _165
REMARK   69  A    between atoms: _165  and  _166
REMARK   70  A    between atoms: _165  and  _168
REMARK   71  A    between atoms: _168  and  _169
REMARK   72  A    between atoms: _172  and  _174
REMARK   73  A    between atoms: _174  and  _175
REMARK   74  A    between atoms: _174  and  _177
REMARK   75  A    between atoms: _179  and  _181
REMARK   76  A    between atoms: _181  and  _182
REMARK   77  A    between atoms: _181  and  _184
REMARK   78  A    between atoms: _184  and  _185
REMARK   79  A    between atoms: _188  and  _190
REMARK   80  A    between atoms: _190  and  _191
REMARK   81  A    between atoms: _190  and  _193
REMARK   82  A    between atoms: _193  and  _194
REMARK   83  A    between atoms: _197  and  _199
REMARK   84  A    between atoms: _199  and  _200
REMARK   85  A    between atoms: _199  and  _202
REMARK   86  A    between atoms: _202  and  _203
REMARK   87  A    between atoms: _206  and  _208
REMARK   88  A    between atoms: _208  and  _209
REMARK   89  A    between atoms: _208  and  _211
REMARK   90  A    between atoms: _211  and  _212
REMARK   91  A    between atoms: _215  and  _217
REMARK   92  A    between atoms: _217  and  _218
REMARK   93  A    between atoms: _217  and  _220
REMARK   94  A    between atoms: _220  and  _221
REMARK   95  A    between atoms: _221  and  _222
REMARK   96  A    between atoms: _224  and  _226
REMARK   97  A    between atoms: _226  and  _227
REMARK   98  A    between atoms: _226  and  _229
REMARK   99  A    between atoms: _229  and  _230
REMARK  100  A    between atoms: _233  and  _235
REMARK  101  A    between atoms: _235  and  _236
REMARK  102  A    between atoms: _235  and  _238
REMARK  103  A    between atoms: _238  and  _239
REMARK  104  A    between atoms: _239  and  _240
REMARK  105  A    between atoms: _240  and  _241
REMARK  106  A    between atoms: _250  and  _252
REMARK  107  A    between atoms: _252  and  _253
REMARK  108  A    between atoms: _252  and  _255
REMARK  109  A    between atoms: _255  and  _256
REMARK  110  A    between atoms: _259  and  _261
REMARK  111  A    between atoms: _261  and  _262
REMARK  112  A    between atoms: _261  and  _264
REMARK  113  A    between atoms: _266  and  _268
REMARK  114  A    between atoms: _268  and  _269
REMARK  115  A    between atoms: _268  and  _271
REMARK  116  A    between atoms: _271  and  _272
REMARK  117  A    between atoms: _275  and  _277
REMARK  118  A    between atoms: _277  and  _278
REMARK  119  A    between atoms: _277  and  _280
REMARK  120  A    between atoms: _280  and  _281
REMARK  121  A    between atoms: _281  and  _282
REMARK  122  A    between atoms: _282  and  _283
REMARK  123  A    between atoms: _292  and  _294
REMARK  124  A    between atoms: _294  and  _295
REMARK  125  A    between atoms: _294  and  _297
REMARK  126  A    between atoms: _297  and  _298
REMARK  127  A    between atoms: _298  and  _299
REMARK  128  A    between atoms: _301  and  _303
REMARK  129  A    between atoms: _303  and  _304
REMARK  130  A    between atoms: _303  and  _306
REMARK  131  A    between atoms: _306  and  _307
REMARK  132  A    between atoms: _310  and  _312
REMARK  133  A    between atoms: _312  and  _313
REMARK  134  A    between atoms: _312  and  _315
REMARK  135  A    between atoms: _315  and  _316
REMARK  136  A    between atoms: _322  and  _324
REMARK  137  A    between atoms: _324  and  _325
REMARK  138  A    between atoms: _324  and  _327
REMARK  139  A    between atoms: _327  and  _328
REMARK  140  A    between atoms: _330  and  _332
REMARK  141  A    between atoms: _332  and  _333
REMARK  142  A    between atoms: _332  and  _335
REMARK  143  A    between atoms: _335  and  _336
REMARK  144  A    between atoms: _339  and  _341
REMARK  145  A    between atoms: _341  and  _342
REMARK  146  A    between atoms: _344  and  _346
REMARK  147  A    between atoms: _346  and  _347
REMARK  148  A    between atoms: _346  and  _349
REMARK  149  A    between atoms: _349  and  _350
REMARK  150  A    between atoms: _353  and  _355
REMARK  151  A    between atoms: _355  and  _356
REMARK  152  A    between atoms: _355  and  _358
REMARK  153  A    between atoms: _358  and  _359
REMARK  154  A    between atoms: _359  and  _360
REMARK  155  A    between atoms: _362  and  _364
REMARK  156  A    between atoms: _364  and  _365
REMARK  157  A    between atoms: _364  and  _367
REMARK  158  A    between atoms: _367  and  _368
REMARK  159  A    between atoms: _373  and  _375
REMARK  160  A    between atoms: _375  and  _376
REMARK  161  A    between atoms: _379  and  _381
REMARK  162  A    between atoms: _381  and  _382
REMARK  163  A    between atoms: _384  and  _386
REMARK  164  A    between atoms: _386  and  _387
REMARK  165  A    between atoms: _386  and  _389
REMARK  166  A    between atoms: _389  and  _390
REMARK  167  A    between atoms: _396  and  _398
REMARK  168  A    between atoms: _398  and  _399
REMARK  169  A    between atoms: _401  and  _403
REMARK  170  A    between atoms: _403  and  _404
REMARK  171  A    between atoms: _403  and  _406
REMARK  172  A    between atoms: _406  and  _407
REMARK  173  A    between atoms: _410  and  _412
REMARK  174  A    between atoms: _412  and  _413
REMARK  175  A    between atoms: _412  and  _415
REMARK  176  A    between atoms: _415  and  _416
REMARK  177  A    between atoms: _419  and  _421
REMARK  178  A    between atoms: _421  and  _422
REMARK  179  A    between atoms: _421  and  _424
REMARK  180  A    between atoms: _427  and  _429
REMARK  181  A    between atoms: _429  and  _430
REMARK  182  A    between atoms: _429  and  _432
REMARK  183  A    between atoms: _432  and  _433
REMARK  184  A    between atoms: _436  and  _438
REMARK  185  A    between atoms: _438  and  _439
REMARK  186  A    between atoms: _438  and  _441
REMARK  187  A    between atoms: _441  and  _442
REMARK  188  A    between atoms: _444  and  _446
REMARK  189  A    between atoms: _446  and  _447
REMARK  190  A    between atoms: _446  and  _449
REMARK  191  A    between atoms: _449  and  _450
REMARK  192  A    between atoms: _450  and  _451
REMARK  193  A    between atoms: _451  and  _452
REMARK  194  A    between atoms: _452  and  _453
REMARK  195  A    between atoms: _457  and  _459
REMARK  196  A    between atoms: _459  and  _460
REMARK  197  A    between atoms: _462  and  _464
REMARK  198  A    between atoms: _464  and  _465
REMARK  199  A    between atoms: _468  and  _470
REMARK  200  A    between atoms: _470  and  _471
REMARK  201  A    between atoms: _470  and  _473
REMARK  202  A    between atoms: _474  and  _475
REMARK  203  A    between atoms: _478  and  _480
REMARK  204  A    between atoms: _480  and  _481
REMARK  205  A    between atoms: _480  and  _483
REMARK  206  A    between atoms: _483  and  _484
REMARK  207  A    between atoms: _484  and  _485
REMARK  208  A    between atoms: _485  and  _486
REMARK  209  A    between atoms: _495  and  _497
REMARK  210  A    between atoms: _497  and  _498
REMARK  211  A    between atoms: _501  and  _503
REMARK  212  A    between atoms: _503  and  _504
REMARK  213  A    between atoms: _503  and  _506
REMARK  214  A    between atoms: _506  and  _507
REMARK  215  A    between atoms: _510  and  _512
REMARK  216  A    between atoms: _512  and  _513
REMARK  217  A    between atoms: _512  and  _515
REMARK  218  A    between atoms: _515  and  _516
REMARK  219  A    between atoms: _519  and  _521
REMARK  220  A    between atoms: _521  and  _522
REMARK  221  A    between atoms: _521  and  _524
REMARK  222  A    between atoms: _524  and  _525
REMARK  223  A    between atoms: _528  and  _530
REMARK  224  A    between atoms: _530  and  _531
REMARK  225  A    between atoms: _530  and  _533
REMARK  226  A    between atoms: _533  and  _534
REMARK  227  A    between atoms: _534  and  _535
REMARK  228  A    between atoms: _535  and  _536
REMARK  229  A    between atoms: _536  and  _537
REMARK  230  A    between atoms: _541  and  _543
REMARK  231  A    between atoms: _543  and  _544
REMARK  232  A    between atoms: _543  and  _546
REMARK  233  A    between atoms: _546  and  _547
REMARK  234  A    between atoms: _550  and  _552
REMARK  235  A    between atoms: _552  and  _553
REMARK  236  A    between atoms: _552  and  _555
REMARK  237  A    between atoms: _555  and  _556
REMARK  238  A    between atoms: _556  and  _557
REMARK  239  A    between atoms: _560  and  _561
REMARK  240  A    between atoms: _566  and  _568
REMARK  241  A    between atoms: _568  and  _569
REMARK  242  A    between atoms: _568  and  _571
REMARK  243  A    between atoms: _571  and  _572
REMARK  244  A    between atoms: _575  and  _577
REMARK  245  A    between atoms: _577  and  _578
REMARK  246  A    between atoms: _577  and  _580
REMARK  247  A    between atoms: _580  and  _581
REMARK  248  A    between atoms: _581  and  _582
REMARK  249  A    between atoms: _582  and  _583
REMARK  250  A    between atoms: _592  and  _594
REMARK  251  A    between atoms: _594  and  _595
REMARK  252  A    between atoms: _594  and  _597
REMARK  253  A    between atoms: _597  and  _598
REMARK  254  A    between atoms: _598  and  _599
REMARK  255  A    between atoms: _601  and  _603
REMARK  256  A    between atoms: _603  and  _604
REMARK  257  A    between atoms: _603  and  _606
REMARK  258  A    between atoms: _606  and  _607
REMARK                            x       y       z     vdW  Elec       q    Type
REMARK                         _______ _______ _______ _____ _____    ______ ____
ROOT
ATOM      1  CA  LEU A   5      37.383  22.405  85.304  0.00  0.00    +0.149 C 
ENDROOT
BRANCH   1   2
ATOM      2  C   LEU A   5      38.303  21.436  86.041  0.00  0.00    +0.241 C 
ATOM      3  O   LEU A   5      38.167  21.251  87.268  0.00  0.00    -0.273 OA
ATOM      4  N   ALA A   6      39.255  20.808  85.359  0.00  0.00    -0.297 N 
ATOM      5  H   ALA A   6      39.310  20.932  84.328  0.00  0.00    +0.150 HD
BRANCH   4   6
ATOM      6  CA  ALA A   6      40.231  19.942  86.033  0.00  0.00    +0.149 C 
ATOM      7  CB  ALA A   6      41.121  19.325  85.004  0.00  0.00    +0.031 C 
BRANCH   6   8
ATOM      8  C   ALA A   6      41.047  20.730  87.049  0.00  0.00    +0.241 C 
ATOM      9  O   ALA A   6      41.238  20.252  88.167  0.00  0.00    -0.273 OA
ATOM     10  N   THR A   7      41.591  21.898  86.693  0.00  0.00    -0.295 N 
ATOM     11  H   THR A   7      41.512  22.224  85.709  0.00  0.00    +0.150 HD
BRANCH  10  12
ATOM     12  CA  THR A   7      42.295  22.721  87.673  0.00  0.00    +0.176 C 
BRANCH  12  13
ATOM     13  C   THR A   7      41.463  22.971  88.911  0.00  0.00    +0.243 C 
ATOM     14  O   THR A   7      41.909  22.854  90.058  0.00  0.00    -0.273 OA
ATOM     15  N   LYS A   8      40.219  23.399  88.721  0.00  0.00    -0.294 N 
ATOM     16  H   LYS A   8      39.854  23.527  87.755  0.00  0.00    +0.150 HD
BRANCH  15  17
ATOM     17  CA  LYS A   8      39.369  23.688  89.863  0.00  0.00    +0.171 C 
BRANCH  17  18
ATOM     18  C   LYS A   8      39.179  22.452  90.746  0.00  0.00    +0.245 C 
ATOM     19  O   LYS A   8      39.202  22.570  91.964  0.00  0.00    -0.273 OA
ATOM     20  N   CYS A   9      38.983  21.306  90.070  0.00  0.00    -0.296 N 
ATOM     21  H   CYS A   9      38.936  21.285  89.031  0.00  0.00    +0.150 HD
BRANCH  20  22
ATOM     22  CA  CYS A   9      38.837  20.065  90.889  0.00  0.00    +0.160 C 
BRANCH  22  23
ATOM     23  C   CYS A   9      40.093  19.633  91.604  0.00  0.00    +0.242 C 
ATOM     24  O   CYS A   9      40.037  19.141  92.699  0.00  0.00    -0.273 OA
ATOM     25  N   ILE A  10      41.278  19.904  90.987  0.00  0.00    -0.298 N 
ATOM     26  H   ILE A  10      41.295  20.296  90.024  0.00  0.00    +0.150 HD
BRANCH  25  27
ATOM     27  CA  ILE A  10      42.528  19.633  91.705  0.00  0.00    +0.137 C 
BRANCH  27  28
ATOM     28  C   ILE A  10      42.559  20.444  93.018  0.00  0.00    +0.227 C 
ATOM     29  O   ILE A  10      42.924  19.884  94.050  0.00  0.00    -0.286 OA
ENDBRANCH  27  28
BRANCH  27  30
ATOM     30  CB  ILE A  10      43.725  19.882  90.814  0.00  0.00    +0.026 C 
ATOM     31  CG2 ILE A  10      45.000  19.938  91.616  0.00  0.00    +0.002 C 
BRANCH  30  32
ATOM     32  CG1 ILE A  10      43.826  18.855  89.679  0.00  0.00    +0.002 C 
ATOM     33  CD1 ILE A  10      44.803  19.230  88.578  0.00  0.00    +0.000 C 
ENDBRANCH  30  32
ENDBRANCH  27  30
ENDBRANCH  25  27
ENDBRANCH  22  23
BRANCH  22  34
ATOM     34  CB  CYS A   9      38.239  18.965  90.016  0.00  0.00    +0.098 C 
ATOM     35  SG  CYS A   9      37.617  17.545  90.972  0.00  0.00    -0.080 S 
ENDBRANCH  22  34
ENDBRANCH  20  22
ENDBRANCH  17  18
BRANCH  17  36
ATOM     36  CB  LYS A   8      38.007  24.221  89.406  0.00  0.00    -0.002 C 
ATOM     37  CG  LYS A   8      38.040  25.581  88.715  0.00  0.00    -0.031 C 
BRANCH  37  38
ATOM     38  CD  LYS A   8      36.700  26.162  88.322  0.00  0.00    +0.002 C 
BRANCH  38  39
ATOM     39  CE  LYS A   8      36.845  27.616  87.871  0.00  0.00    -0.081 C 
BRANCH  39  40
ATOM     40  NZ  LYS A   8      37.017  28.483  89.069  0.00  0.00    +0.381 N 
ATOM     41  HZ1 LYS A   8      36.185  28.389  89.686  0.00  0.00    -0.089 HD
ATOM     42  HZ2 LYS A   8      37.870  28.190  89.588  0.00  0.00    -0.089 HD
ATOM     43  HZ3 LYS A   8      37.116  29.473  88.767  0.00  0.00    -0.089 HD
ENDBRANCH  39  40
ENDBRANCH  38  39
ENDBRANCH  37  38
ENDBRANCH  17  36
ENDBRANCH  15  17
ENDBRANCH  12  13
BRANCH  12  44
ATOM     44  CB  THR A   7      42.694  24.064  87.009  0.00  0.00    +0.137 C 
ATOM     45  CG2 THR A   7      43.204  25.026  88.052  0.00  0.00    +0.034 C 
BRANCH  44  46
ATOM     46  OG1 THR A   7      43.700  23.787  86.015  0.00  0.00    -0.382 OA
ATOM     47  HG1 THR A   7      43.971  24.632  85.577  0.00  0.00    +0.210 HD
ENDBRANCH  44  46
ENDBRANCH  12  44
ENDBRANCH  10  12
ENDBRANCH   6   8
ENDBRANCH   4   6
ENDBRANCH   1   2
BRANCH   1  50
ATOM     48  C   GLU A   4      39.066  24.001  84.660  0.00  0.00    +0.241 C 
ATOM     49  O   GLU A   4      39.355  24.223  85.852  0.00  0.00    -0.273 OA
ATOM     50  N   LEU A   5      38.120  23.162  84.299  0.00  0.00    -0.297 N 
ATOM     51  H   LEU A   5      37.896  23.038  83.291  0.00  0.00    +0.150 HD
BRANCH  48  52
ATOM     52  CA  GLU A   4      39.807  24.692  83.515  0.00  0.00    +0.149 C 
BRANCH  52  55
ATOM     53  C   SER A   3      40.977  22.739  82.669  0.00  0.00    +0.243 C 
ATOM     54  O   SER A   3      41.571  22.586  83.744  0.00  0.00    -0.273 OA
ATOM     55  N   GLU A   4      40.172  23.774  82.461  0.00  0.00    -0.297 N 
ATOM     56  H   GLU A   4      39.791  23.929  81.506  0.00  0.00    +0.150 HD
BRANCH  53  57
ATOM     57  CA  SER A   3      41.177  21.720  81.573  0.00  0.00    +0.178 C 
BRANCH  57  60
ATOM     58  C   PHE A   2      38.920  20.887  81.398  0.00  0.00    +0.241 C 
ATOM     59  O   PHE A   2      38.958  20.525  82.562  0.00  0.00    -0.273 OA
ATOM     60  N   SER A   3      39.948  21.524  80.819  0.00  0.00    -0.295 N 
ATOM     61  H   SER A   3      39.868  21.874  79.843  0.00  0.00    +0.150 HD
BRANCH  58  62
ATOM     62  CA  PHE A   2      37.746  20.649  80.475  0.00  0.00    +0.153 C 
BRANCH  62  65
ATOM     63  C   LYS A   1      37.094  23.026  80.331  0.00  0.00    +0.238 C 
ATOM     64  O   LYS A   1      37.047  23.153  81.559  0.00  0.00    -0.274 OA
ATOM     65  N   PHE A   2      37.414  21.884  79.723  0.00  0.00    -0.297 N 
ATOM     66  H   PHE A   2      37.432  21.858  78.683  0.00  0.00    +0.150 HD
BRANCH  63  67
ATOM     67  CA  LYS A   1      36.768  24.218  79.442  0.00  0.00    +0.145 C 
BRANCH  67  68
ATOM     68  N   LYS A   1      37.673  24.345  78.302  0.00  0.00    -0.238 NA
ATOM     69  H   LYS A   1      37.329  24.185  77.334  0.00  0.00    +0.142 HD
ENDBRANCH  67  68
BRANCH  67  70
ATOM     70  CB  LYS A   1      35.349  24.105  78.918  0.00  0.00    +0.026 C 
BRANCH  70  71
ATOM     71  CG  LYS A   1      34.247  24.265  79.936  0.00  0.00    -0.000 C 
BRANCH  71  72
ATOM     72  CD  LYS A   1      34.275  25.514  80.791  0.00  0.00    -0.024 C 
BRANCH  72  73
ATOM     73  CE  LYS A   1      33.365  25.318  81.996  0.00  0.00    -0.086 C 
BRANCH  73  74
ATOM     74  NZ  LYS A   1      31.982  24.979  81.593  0.00  0.00    +0.380 N 
ATOM     75  HZ1 LYS A   1      31.395  24.854  82.443  0.00  0.00    -0.089 HD
ATOM     76  HZ2 LYS A   1      31.989  24.097  81.042  0.00  0.00    -0.089 HD
ATOM     77  HZ3 LYS A   1      31.593  25.749  81.012  0.00  0.00    -0.089 HD
ENDBRANCH  73  74
ENDBRANCH  72  73
ENDBRANCH  71  72
ENDBRANCH  70  71
ENDBRANCH  67  70
ENDBRANCH  63  67
ENDBRANCH  62  65
BRANCH  62  78
ATOM     78  CB  PHE A   2      38.027  19.584  79.424  0.00  0.00    +0.055 C 
BRANCH  78  79
ATOM     79  CG  PHE A   2      38.439  18.247  79.995  0.00  0.00    -0.020 A 
ATOM     80  CD2 PHE A   2      37.492  17.335  80.436  0.00  0.00    -0.004 A 
ATOM     81  CE2 PHE A   2      37.911  16.088  80.884  0.00  0.00    -0.000 A 
ATOM     82  CZ  PHE A   2      39.211  15.737  80.874  0.00  0.00    -0.000 A 
ATOM     83  CE1 PHE A   2      40.177  16.650  80.469  0.00  0.00    -0.000 A 
ATOM     84  CD1 PHE A   2      39.763  17.896  80.028  0.00  0.00    -0.004 A 
ENDBRANCH  78  79
ENDBRANCH  62  78
ENDBRANCH  58  62
ENDBRANCH  57  60
BRANCH  57  85
ATOM     85  CB  SER A   3      42.383  22.091  80.683  0.00  0.00    +0.166 C 
BRANCH  85  86
ATOM     86  OG  SER A   3      42.148  23.288  79.959  0.00  0.00    -0.380 OA
ATOM     87  H   SER A   3      41.355  23.171  79.379  0.00  0.00    +0.211 HD
ENDBRANCH  85  86
ENDBRANCH  57  85
ENDBRANCH  53  57
ENDBRANCH  52  55
BRANCH  52  88
ATOM     88  CB  GLU A   4      38.933  25.797  82.951  0.00  0.00    +0.041 C 
BRANCH  88  89
ATOM     89  CG  GLU A   4      38.366  26.764  83.977  0.00  0.00    +0.116 C 
BRANCH  89  90
ATOM     90  CD  GLU A   4      37.342  27.648  83.239  0.00  0.00    +0.365 C 
ATOM     91  OE2 GLU A   4      36.226  27.759  83.761  0.00  0.00    -0.246 OA
ATOM     92  OE1 GLU A   4      37.688  28.176  82.158  0.00  0.00    -0.246 OA
ENDBRANCH  89  90
ENDBRANCH  88  89
ENDBRANCH  52  88
ENDBRANCH  48  52
ENDBRANCH   1  50
BRANCH   1  93
ATOM     93  CB  LEU A   5      36.234  21.658  84.684  0.00  0.00    +0.029 C 
BRANCH  93  94
ATOM     94  CG  LEU A   5      35.105  22.575  84.200  0.00  0.00    +0.002 C 
ATOM     95  CD2 LEU A   5      34.369  23.091  85.412  0.00  0.00    +0.000 C 
ATOM     96  CD1 LEU A   5      34.192  21.840  83.222  0.00  0.00    +0.000 C 
ENDBRANCH  93  94
ENDBRANCH   1  93
TORSDOF 43
REMARK  Name = ../refined-set-2016/1fcy/1fcy_pocket.pdb
REMARK  258 active torsions:
REMARK  status: ('A' for Active; 'I' for Inactive)
REMARK    1  A    between atoms: _1  and  _3
REMARK    2  A    between atoms: _3  and  _4
REMARK    3  A    between atoms: _3  and  _6
REMARK    4  A    between atoms: _6  and  _7
REMARK    5  A    between atoms: _10  and  _12
REMARK    6  A    between atoms: _12  and  _13
REMARK    7  A    between atoms: _12  and  _15
REMARK    8  A    between atoms: _15  and  _16
REMARK    9  A    between atoms: _23  and  _24
REMARK   10  A    between atoms: _29  and  _31
REMARK   11  A    between atoms: _31  and  _32
REMARK   12  A    between atoms: _31  and  _34
REMARK   13  A    between atoms: _34  and  _35
REMARK   14  A    between atoms: _38  and  _40
REMARK   15  A    between atoms: _40  and  _41
REMARK   16  A    between atoms: _40  and  _43
REMARK   17  A    between atoms: _43  and  _44
REMARK   18  A    between atoms: _54  and  _56
REMARK   19  A    between atoms: _56  and  _57
REMARK   20  A    between atoms: _56  and  _59
REMARK   21  A    between atoms: _59  and  _60
REMARK   22  A    between atoms: _60  and  _61
REMARK   23  A    between atoms: _61  and  _62
REMARK   24  A    between atoms: _62  and  _63
REMARK   25  A    between atoms: _67  and  _69
REMARK   26  A    between atoms: _69  and  _70
REMARK   27  A    between atoms: _69  and  _72
REMARK   28  A    between atoms: _72  and  _73
REMARK   29  A    between atoms: _79  and  _81
REMARK   30  A    between atoms: _81  and  _82
REMARK   31  A    between atoms: _81  and  _84
REMARK   32  A    between atoms: _84  and  _85
REMARK   33  A    between atoms: _87  and  _89
REMARK   34  A    between atoms: _89  and  _90
REMARK   35  A    between atoms: _89  and  _92
REMARK   36  A    between atoms: _92  and  _93
REMARK   37  A    between atoms: _93  and  _94
REMARK   38  A    between atoms: _97  and  _99
REMARK   39  A    between atoms: _99  and  _100
REMARK   40  A    between atoms: _99  and  _102
REMARK   41  A    between atoms: _102  and  _103
REMARK   42  A    between atoms: _106  and  _108
REMARK   43  A    between atoms: _108  and  _109
REMARK   44  A    between atoms: _112  and  _114
REMARK   45  A    between atoms: _114  and  _115
REMARK   46  A    between atoms: _114  and  _117
REMARK   47  A    between atoms: _117  and  _118
REMARK   48  A    between atoms: _121  and  _123
REMARK   49  A    between atoms: _123  and  _124
REMARK   50  A    between atoms: _123  and  _126
REMARK   51  A    between atoms: _127  and  _128
REMARK   52  A    between atoms: _128  and  _129
REMARK   53  A    between atoms: _129  and  _130
REMARK   54  A    between atoms: _134  and  _136
REMARK   55  A    between atoms: _136  and  _137
REMARK   56  A    between atoms: _136  and  _139
REMARK   57  A    between atoms: _141  and  _143
REMARK   58  A    between atoms: _143  and  _144
REMARK   59  A    between atoms: _143  and  _146
REMARK   60  A    between atoms: _146  and  _147
REMARK   61  A    between atoms: _150  and  _152
REMARK   62  A    between atoms: _152  and  _153
REMARK   63  A    between atoms: _152  and  _155
REMARK   64  A    between atoms: _155  and  _156
REMARK   65  A    between atoms: _156  and  _157
REMARK   66  A    between atoms: _157  and  _158
REMARK   67  A    between atoms: _158  and  _159
REMARK   68  A    between atoms: _163  and  _165
REMARK   69  A    between atoms: _165  and  _166
REMARK   70  A    between atoms: _165  and  _168
REMARK   71  A    between atoms: _168  and  _169
REMARK   72  A    between atoms: _172  and  _174
REMARK   73  A    between atoms: _174  and  _175
REMARK   74  A    between atoms: _174  and  _177
REMARK   75  A    between atoms: _179  and  _181
REMARK   76  A    between atoms: _181  and  _182
REMARK   77  A    between atoms: _181  and  _184
REMARK   78  A    between atoms: _184  and  _185
REMARK   79  A    between atoms: _188  and  _190
REMARK   80  A    between atoms: _190  and  _191
REMARK   81  A    between atoms: _190  and  _193
REMARK   82  A    between atoms: _193  and  _194
REMARK   83  A    between atoms: _197  and  _199
REMARK   84  A    between atoms: _199  and  _200
REMARK   85  A    between atoms: _199  and  _202
REMARK   86  A    between atoms: _202  and  _203
REMARK   87  A    between atoms: _206  and  _208
REMARK   88  A    between atoms: _208  and  _209
REMARK   89  A    between atoms: _208  and  _211
REMARK   90  A    between atoms: _211  and  _212
REMARK   91  A    between atoms: _215  and  _217
REMARK   92  A    between atoms: _217  and  _218
REMARK   93  A    between atoms: _217  and  _220
REMARK   94  A    between atoms: _220  and  _221
REMARK   95  A    between atoms: _221  and  _222
REMARK   96  A    between atoms: _224  and  _226
REMARK   97  A    between atoms: _226  and  _227
REMARK   98  A    between atoms: _226  and  _229
REMARK   99  A    between atoms: _229  and  _230
REMARK  100  A    between atoms: _233  and  _235
REMARK  101  A    between atoms: _235  and  _236
REMARK  102  A    between atoms: _235  and  _238
REMARK  103  A    between atoms: _238  and  _239
REMARK  104  A    between atoms: _239  and  _240
REMARK  105  A    between atoms: _240  and  _241
REMARK  106  A    between atoms: _250  and  _252
REMARK  107  A    between atoms: _252  and  _253
REMARK  108  A    between atoms: _252  and  _255
REMARK  109  A    between atoms: _255  and  _256
REMARK  110  A    between atoms: _259  and  _261
REMARK  111  A    between atoms: _261  and  _262
REMARK  112  A    between atoms: _261  and  _264
REMARK  113  A    between atoms: _266  and  _268
REMARK  114  A    between atoms: _268  and  _269
REMARK  115  A    between atoms: _268  and  _271
REMARK  116  A    between atoms: _271  and  _272
REMARK  117  A    between atoms: _275  and  _277
REMARK  118  A    between atoms: _277  and  _278
REMARK  119  A    between atoms: _277  and  _280
REMARK  120  A    between atoms: _280  and  _281
REMARK  121  A    between atoms: _281  and  _282
REMARK  122  A    between atoms: _282  and  _283
REMARK  123  A    between atoms: _292  and  _294
REMARK  124  A    between atoms: _294  and  _295
REMARK  125  A    between atoms: _294  and  _297
REMARK  126  A    between atoms: _297  and  _298
REMARK  127  A    between atoms: _298  and  _299
REMARK  128  A    between atoms: _301  and  _303
REMARK  129  A    between atoms: _303  and  _304
REMARK  130  A    between atoms: _303  and  _306
REMARK  131  A    between atoms: _306  and  _307
REMARK  132  A    between atoms: _310  and  _312
REMARK  133  A    between atoms: _312  and  _313
REMARK  134  A    between atoms: _312  and  _315
REMARK  135  A    between atoms: _315  and  _316
REMARK  136  A    between atoms: _322  and  _324
REMARK  137  A    between atoms: _324  and  _325
REMARK  138  A    between atoms: _324  and  _327
REMARK  139  A    between atoms: _327  and  _328
REMARK  140  A    between atoms: _330  and  _332
REMARK  141  A    between atoms: _332  and  _333
REMARK  142  A    between atoms: _332  and  _335
REMARK  143  A    between atoms: _335  and  _336
REMARK  144  A    between atoms: _339  and  _341
REMARK  145  A    between atoms: _341  and  _342
REMARK  146  A    between atoms: _344  and  _346
REMARK  147  A    between atoms: _346  and  _347
REMARK  148  A    between atoms: _346  and  _349
REMARK  149  A    between atoms: _349  and  _350
REMARK  150  A    between atoms: _353  and  _355
REMARK  151  A    between atoms: _355  and  _356
REMARK  152  A    between atoms: _355  and  _358
REMARK  153  A    between atoms: _358  and  _359
REMARK  154  A    between atoms: _359  and  _360
REMARK  155  A    between atoms: _362  and  _364
REMARK  156  A    between atoms: _364  and  _365
REMARK  157  A    between atoms: _364  and  _367
REMARK  158  A    between atoms: _367  and  _368
REMARK  159  A    between atoms: _373  and  _375
REMARK  160  A    between atoms: _375  and  _376
REMARK  161  A    between atoms: _379  and  _381
REMARK  162  A    between atoms: _381  and  _382
REMARK  163  A    between atoms: _384  and  _386
REMARK  164  A    between atoms: _386  and  _387
REMARK  165  A    between atoms: _386  and  _389
REMARK  166  A    between atoms: _389  and  _390
REMARK  167  A    between atoms: _396  and  _398
REMARK  168  A    between atoms: _398  and  _399
REMARK  169  A    between atoms: _401  and  _403
REMARK  170  A    between atoms: _403  and  _404
REMARK  171  A    between atoms: _403  and  _406
REMARK  172  A    between atoms: _406  and  _407
REMARK  173  A    between atoms: _410  and  _412
REMARK  174  A    between atoms: _412  and  _413
REMARK  175  A    between atoms: _412  and  _415
REMARK  176  A    between atoms: _415  and  _416
REMARK  177  A    between atoms: _419  and  _421
REMARK  178  A    between atoms: _421  and  _422
REMARK  179  A    between atoms: _421  and  _424
REMARK  180  A    between atoms: _427  and  _429
REMARK  181  A    between atoms: _429  and  _430
REMARK  182  A    between atoms: _429  and  _432
REMARK  183  A    between atoms: _432  and  _433
REMARK  184  A    between atoms: _436  and  _438
REMARK  185  A    between atoms: _438  and  _439
REMARK  186  A    between atoms: _438  and  _441
REMARK  187  A    between atoms: _441  and  _442
REMARK  188  A    between atoms: _444  and  _446
REMARK  189  A    between atoms: _446  and  _447
REMARK  190  A    between atoms: _446  and  _449
REMARK  191  A    between atoms: _449  and  _450
REMARK  192  A    between atoms: _450  and  _451
REMARK  193  A    between atoms: _451  and  _452
REMARK  194  A    between atoms: _452  and  _453
REMARK  195  A    between atoms: _457  and  _459
REMARK  196  A    between atoms: _459  and  _460
REMARK  197  A    between atoms: _462  and  _464
REMARK  198  A    between atoms: _464  and  _465
REMARK  199  A    between atoms: _468  and  _470
REMARK  200  A    between atoms: _470  and  _471
REMARK  201  A    between atoms: _470  and  _473
REMARK  202  A    between atoms: _474  and  _475
REMARK  203  A    between atoms: _478  and  _480
REMARK  204  A    between atoms: _480  and  _481
REMARK  205  A    between atoms: _480  and  _483
REMARK  206  A    between atoms: _483  and  _484
REMARK  207  A    between atoms: _484  and  _485
REMARK  208  A    between atoms: _485  and  _486
REMARK  209  A    between atoms: _495  and  _497
REMARK  210  A    between atoms: _497  and  _498
REMARK  211  A    between atoms: _501  and  _503
REMARK  212  A    between atoms: _503  and  _504
REMARK  213  A    between atoms: _503  and  _506
REMARK  214  A    between atoms: _506  and  _507
REMARK  215  A    between atoms: _510  and  _512
REMARK  216  A    between atoms: _512  and  _513
REMARK  217  A    between atoms: _512  and  _515
REMARK  218  A    between atoms: _515  and  _516
REMARK  219  A    between atoms: _519  and  _521
REMARK  220  A    between atoms: _521  and  _522
REMARK  221  A    between atoms: _521  and  _524
REMARK  222  A    between atoms: _524  and  _525
REMARK  223  A    between atoms: _528  and  _530
REMARK  224  A    between atoms: _530  and  _531
REMARK  225  A    between atoms: _530  and  _533
REMARK  226  A    between atoms: _533  and  _534
REMARK  227  A    between atoms: _534  and  _535
REMARK  228  A    between atoms: _535  and  _536
REMARK  229  A    between atoms: _536  and  _537
REMARK  230  A    between atoms: _541  and  _543
REMARK  231  A    between atoms: _543  and  _544
REMARK  232  A    between atoms: _543  and  _546
REMARK  233  A    between atoms: _546  and  _547
REMARK  234  A    between atoms: _550  and  _552
REMARK  235  A    between atoms: _552  and  _553
REMARK  236  A    between atoms: _552  and  _555
REMARK  237  A    between atoms: _555  and  _556
REMARK  238  A    between atoms: _556  and  _557
REMARK  239  A    between atoms: _560  and  _561
REMARK  240  A    between atoms: _566  and  _568
REMARK  241  A    between atoms: _568  and  _569
REMARK  242  A    between atoms: _568  and  _571
REMARK  243  A    between atoms: _571  and  _572
REMARK  244  A    between atoms: _575  and  _577
REMARK  245  A    between atoms: _577  and  _578
REMARK  246  A    between atoms: _577  and  _580
REMARK  247  A    between atoms: _580  and  _581
REMARK  248  A    between atoms: _581  and  _582
REMARK  249  A    between atoms: _582  and  _583
REMARK  250  A    between atoms: _592  and  _594
REMARK  251  A    between atoms: _594  and  _595
REMARK  252  A    between atoms: _594  and  _597
REMARK  253  A    between atoms: _597  and  _598
REMARK  254  A    between atoms: _598  and  _599
REMARK  255  A    between atoms: _601  and  _603
REMARK  256  A    between atoms: _603  and  _604
REMARK  257  A    between atoms: _603  and  _606
REMARK  258  A    between atoms: _606  and  _607
REMARK                            x       y       z     vdW  Elec       q    Type
REMARK                         _______ _______ _______ _____ _____    ______ ____
ROOT
ATOM      1  CA  LYS A   1      39.049  20.855  95.634  0.00  0.00    +0.145 C 
ENDROOT
BRANCH   1   2
ATOM      2  C   LYS A   1      39.611  19.562  96.215  0.00  0.00    +0.238 C 
ATOM      3  O   LYS A   1      39.314  19.282  97.398  0.00  0.00    -0.274 OA
ATOM      4  N   ILE A   2      40.372  18.767  95.480  0.00  0.00    -0.298 N 
ATOM      5  H   ILE A   2      40.558  19.020  94.488  0.00  0.00    +0.150 HD
BRANCH   4   6
ATOM      6  CA  ILE A   2      40.954  17.554  96.019  0.00  0.00    +0.137 C 
BRANCH   6   7
ATOM      7  C   ILE A   2      41.995  17.890  97.078  0.00  0.00    +0.227 C 
ATOM      8  O   ILE A   2      42.088  17.207  98.117  0.00  0.00    -0.286 OA
ENDBRANCH   6   7
BRANCH   6   9
ATOM      9  CB  ILE A   2      41.518  16.689  94.881  0.00  0.00    +0.026 C 
ATOM     10  CG2 ILE A   2      42.398  15.579  95.431  0.00  0.00    +0.002 C 
BRANCH   9  11
ATOM     11  CG1 ILE A   2      40.422  16.168  93.976  0.00  0.00    +0.002 C 
ATOM     12  CD1 ILE A   2      40.848  15.636  92.622  0.00  0.00    +0.000 C 
ENDBRANCH   9  11
ENDBRANCH   6   9
ENDBRANCH   4   6
ENDBRANCH   1   2
BRANCH   1  13
ATOM     13  N   LYS A   1      40.017  21.468  94.754  0.00  0.00    -0.238 NA
ATOM     14  H   LYS A   1      39.786  21.535  93.742  0.00  0.00    +0.142 HD
ENDBRANCH   1  13
BRANCH   1  15
ATOM     15  CB  LYS A   1      37.748  20.559  94.895  0.00  0.00    +0.026 C 
BRANCH  15  16
ATOM     16  CG  LYS A   1      36.968  21.781  94.452  0.00  0.00    -0.000 C 
BRANCH  16  17
ATOM     17  CD  LYS A   1      36.392  22.533  95.622  0.00  0.00    -0.024 C 
BRANCH  17  18
ATOM     18  CE  LYS A   1      35.418  23.596  95.110  0.00  0.00    -0.086 C 
BRANCH  18  19
ATOM     19  NZ  LYS A   1      35.239  24.656  96.108  0.00  0.00    +0.380 N 
ATOM     20  HZ1 LYS A   1      34.859  24.245  96.985  0.00  0.00    -0.089 HD
ATOM     21  HZ2 LYS A   1      36.156  25.105  96.303  0.00  0.00    -0.089 HD
ATOM     22  HZ3 LYS A   1      34.575  25.367  95.741  0.00  0.00    -0.089 HD
ENDBRANCH  18  19
ENDBRANCH  17  18
ENDBRANCH  16  17
ENDBRANCH  15  16
ENDBRANCH   1  15
TORSDOF 11
REMARK  Name = ../refined-set-2016/1fcy/1fcy_pocket.pdb
REMARK  258 active torsions:
REMARK  status: ('A' for Active; 'I' for Inactive)
REMARK    1  A    between atoms: _1  and  _3
REMARK    2  A    between atoms: _3  and  _4
REMARK    3  A    between atoms: _3  and  _6
REMARK    4  A    between atoms: _6  and  _7
REMARK    5  A    between atoms: _10  and  _12
REMARK    6  A    between atoms: _12  and  _13
REMARK    7  A    between atoms: _12  and  _15
REMARK    8  A    between atoms: _15  and  _16
REMARK    9  A    between atoms: _23  and  _24
REMARK   10  A    between atoms: _29  and  _31
REMARK   11  A    between atoms: _31  and  _32
REMARK   12  A    between atoms: _31  and  _34
REMARK   13  A    between atoms: _34  and  _35
REMARK   14  A    between atoms: _38  and  _40
REMARK   15  A    between atoms: _40  and  _41
REMARK   16  A    between atoms: _40  and  _43
REMARK   17  A    between atoms: _43  and  _44
REMARK   18  A    between atoms: _54  and  _56
REMARK   19  A    between atoms: _56  and  _57
REMARK   20  A    between atoms: _56  and  _59
REMARK   21  A    between atoms: _59  and  _60
REMARK   22  A    between atoms: _60  and  _61
REMARK   23  A    between atoms: _61  and  _62
REMARK   24  A    between atoms: _62  and  _63
REMARK   25  A    between atoms: _67  and  _69
REMARK   26  A    between atoms: _69  and  _70
REMARK   27  A    between atoms: _69  and  _72
REMARK   28  A    between atoms: _72  and  _73
REMARK   29  A    between atoms: _79  and  _81
REMARK   30  A    between atoms: _81  and  _82
REMARK   31  A    between atoms: _81  and  _84
REMARK   32  A    between atoms: _84  and  _85
REMARK   33  A    between atoms: _87  and  _89
REMARK   34  A    between atoms: _89  and  _90
REMARK   35  A    between atoms: _89  and  _92
REMARK   36  A    between atoms: _92  and  _93
REMARK   37  A    between atoms: _93  and  _94
REMARK   38  A    between atoms: _97  and  _99
REMARK   39  A    between atoms: _99  and  _100
REMARK   40  A    between atoms: _99  and  _102
REMARK   41  A    between atoms: _102  and  _103
REMARK   42  A    between atoms: _106  and  _108
REMARK   43  A    between atoms: _108  and  _109
REMARK   44  A    between atoms: _112  and  _114
REMARK   45  A    between atoms: _114  and  _115
REMARK   46  A    between atoms: _114  and  _117
REMARK   47  A    between atoms: _117  and  _118
REMARK   48  A    between atoms: _121  and  _123
REMARK   49  A    between atoms: _123  and  _124
REMARK   50  A    between atoms: _123  and  _126
REMARK   51  A    between atoms: _127  and  _128
REMARK   52  A    between atoms: _128  and  _129
REMARK   53  A    between atoms: _129  and  _130
REMARK   54  A    between atoms: _134  and  _136
REMARK   55  A    between atoms: _136  and  _137
REMARK   56  A    between atoms: _136  and  _139
REMARK   57  A    between atoms: _141  and  _143
REMARK   58  A    between atoms: _143  and  _144
REMARK   59  A    between atoms: _143  and  _146
REMARK   60  A    between atoms: _146  and  _147
REMARK   61  A    between atoms: _150  and  _152
REMARK   62  A    between atoms: _152  and  _153
REMARK   63  A    between atoms: _152  and  _155
REMARK   64  A    between atoms: _155  and  _156
REMARK   65  A    between atoms: _156  and  _157
REMARK   66  A    between atoms: _157  and  _158
REMARK   67  A    between atoms: _158  and  _159
REMARK   68  A    between atoms: _163  and  _165
REMARK   69  A    between atoms: _165  and  _166
REMARK   70  A    between atoms: _165  and  _168
REMARK   71  A    between atoms: _168  and  _169
REMARK   72  A    between atoms: _172  and  _174
REMARK   73  A    between atoms: _174  and  _175
REMARK   74  A    between atoms: _174  and  _177
REMARK   75  A    between atoms: _179  and  _181
REMARK   76  A    between atoms: _181  and  _182
REMARK   77  A    between atoms: _181  and  _184
REMARK   78  A    between atoms: _184  and  _185
REMARK   79  A    between atoms: _188  and  _190
REMARK   80  A    between atoms: _190  and  _191
REMARK   81  A    between atoms: _190  and  _193
REMARK   82  A    between atoms: _193  and  _194
REMARK   83  A    between atoms: _197  and  _199
REMARK   84  A    between atoms: _199  and  _200
REMARK   85  A    between atoms: _199  and  _202
REMARK   86  A    between atoms: _202  and  _203
REMARK   87  A    between atoms: _206  and  _208
REMARK   88  A    between atoms: _208  and  _209
REMARK   89  A    between atoms: _208  and  _211
REMARK   90  A    between atoms: _211  and  _212
REMARK   91  A    between atoms: _215  and  _217
REMARK   92  A    between atoms: _217  and  _218
REMARK   93  A    between atoms: _217  and  _220
REMARK   94  A    between atoms: _220  and  _221
REMARK   95  A    between atoms: _221  and  _222
REMARK   96  A    between atoms: _224  and  _226
REMARK   97  A    between atoms: _226  and  _227
REMARK   98  A    between atoms: _226  and  _229
REMARK   99  A    between atoms: _229  and  _230
REMARK  100  A    between atoms: _233  and  _235
REMARK  101  A    between atoms: _235  and  _236
REMARK  102  A    between atoms: _235  and  _238
REMARK  103  A    between atoms: _238  and  _239
REMARK  104  A    between atoms: _239  and  _240
REMARK  105  A    between atoms: _240  and  _241
REMARK  106  A    between atoms: _250  and  _252
REMARK  107  A    between atoms: _252  and  _253
REMARK  108  A    between atoms: _252  and  _255
REMARK  109  A    between atoms: _255  and  _256
REMARK  110  A    between atoms: _259  and  _261
REMARK  111  A    between atoms: _261  and  _262
REMARK  112  A    between atoms: _261  and  _264
REMARK  113  A    between atoms: _266  and  _268
REMARK  114  A    between atoms: _268  and  _269
REMARK  115  A    between atoms: _268  and  _271
REMARK  116  A    between atoms: _271  and  _272
REMARK  117  A    between atoms: _275  and  _277
REMARK  118  A    between atoms: _277  and  _278
REMARK  119  A    between atoms: _277  and  _280
REMARK  120  A    between atoms: _280  and  _281
REMARK  121  A    between atoms: _281  and  _282
REMARK  122  A    between atoms: _282  and  _283
REMARK  123  A    between atoms: _292  and  _294
REMARK  124  A    between atoms: _294  and  _295
REMARK  125  A    between atoms: _294  and  _297
REMARK  126  A    between atoms: _297  and  _298
REMARK  127  A    between atoms: _298  and  _299
REMARK  128  A    between atoms: _301  and  _303
REMARK  129  A    between atoms: _303  and  _304
REMARK  130  A    between atoms: _303  and  _306
REMARK  131  A    between atoms: _306  and  _307
REMARK  132  A    between atoms: _310  and  _312
REMARK  133  A    between atoms: _312  and  _313
REMARK  134  A    between atoms: _312  and  _315
REMARK  135  A    between atoms: _315  and  _316
REMARK  136  A    between atoms: _322  and  _324
REMARK  137  A    between atoms: _324  and  _325
REMARK  138  A    between atoms: _324  and  _327
REMARK  139  A    between atoms: _327  and  _328
REMARK  140  A    between atoms: _330  and  _332
REMARK  141  A    between atoms: _332  and  _333
REMARK  142  A    between atoms: _332  and  _335
REMARK  143  A    between atoms: _335  and  _336
REMARK  144  A    between atoms: _339  and  _341
REMARK  145  A    between atoms: _341  and  _342
REMARK  146  A    between atoms: _344  and  _346
REMARK  147  A    between atoms: _346  and  _347
REMARK  148  A    between atoms: _346  and  _349
REMARK  149  A    between atoms: _349  and  _350
REMARK  150  A    between atoms: _353  and  _355
REMARK  151  A    between atoms: _355  and  _356
REMARK  152  A    between atoms: _355  and  _358
REMARK  153  A    between atoms: _358  and  _359
REMARK  154  A    between atoms: _359  and  _360
REMARK  155  A    between atoms: _362  and  _364
REMARK  156  A    between atoms: _364  and  _365
REMARK  157  A    between atoms: _364  and  _367
REMARK  158  A    between atoms: _367  and  _368
REMARK  159  A    between atoms: _373  and  _375
REMARK  160  A    between atoms: _375  and  _376
REMARK  161  A    between atoms: _379  and  _381
REMARK  162  A    between atoms: _381  and  _382
REMARK  163  A    between atoms: _384  and  _386
REMARK  164  A    between atoms: _386  and  _387
REMARK  165  A    between atoms: _386  and  _389
REMARK  166  A    between atoms: _389  and  _390
REMARK  167  A    between atoms: _396  and  _398
REMARK  168  A    between atoms: _398  and  _399
REMARK  169  A    between atoms: _401  and  _403
REMARK  170  A    between atoms: _403  and  _404
REMARK  171  A    between atoms: _403  and  _406
REMARK  172  A    between atoms: _406  and  _407
REMARK  173  A    between atoms: _410  and  _412
REMARK  174  A    between atoms: _412  and  _413
REMARK  175  A    between atoms: _412  and  _415
REMARK  176  A    between atoms: _415  and  _416
REMARK  177  A    between atoms: _419  and  _421
REMARK  178  A    between atoms: _421  and  _422
REMARK  179  A    between atoms: _421  and  _424
REMARK  180  A    between atoms: _427  and  _429
REMARK  181  A    between atoms: _429  and  _430
REMARK  182  A    between atoms: _429  and  _432
REMARK  183  A    between atoms: _432  and  _433
REMARK  184  A    between atoms: _436  and  _438
REMARK  185  A    between atoms: _438  and  _439
REMARK  186  A    between atoms: _438  and  _441
REMARK  187  A    between atoms: _441  and  _442
REMARK  188  A    between atoms: _444  and  _446
REMARK  189  A    between atoms: _446  and  _447
REMARK  190  A    between atoms: _446  and  _449
REMARK  191  A    between atoms: _449  and  _450
REMARK  192  A    between atoms: _450  and  _451
REMARK  193  A    between atoms: _451  and  _452
REMARK  194  A    between atoms: _452  and  _453
REMARK  195  A    between atoms: _457  and  _459
REMARK  196  A    between atoms: _459  and  _460
REMARK  197  A    between atoms: _462  and  _464
REMARK  198  A    between atoms: _464  and  _465
REMARK  199  A    between atoms: _468  and  _470
REMARK  200  A    between atoms: _470  and  _471
REMARK  201  A    between atoms: _470  and  _473
REMARK  202  A    between atoms: _474  and  _475
REMARK  203  A    between atoms: _478  and  _480
REMARK  204  A    between atoms: _480  and  _481
REMARK  205  A    between atoms: _480  and  _483
REMARK  206  A    between atoms: _483  and  _484
REMARK  207  A    between atoms: _484  and  _485
REMARK  208  A    between atoms: _485  and  _486
REMARK  209  A    between atoms: _495  and  _497
REMARK  210  A    between atoms: _497  and  _498
REMARK  211  A    between atoms: _501  and  _503
REMARK  212  A    between atoms: _503  and  _504
REMARK  213  A    between atoms: _503  and  _506
REMARK  214  A    between atoms: _506  and  _507
REMARK  215  A    between atoms: _510  and  _512
REMARK  216  A    between atoms: _512  and  _513
REMARK  217  A    between atoms: _512  and  _515
REMARK  218  A    between atoms: _515  and  _516
REMARK  219  A    between atoms: _519  and  _521
REMARK  220  A    between atoms: _521  and  _522
REMARK  221  A    between atoms: _521  and  _524
REMARK  222  A    between atoms: _524  and  _525
REMARK  223  A    between atoms: _528  and  _530
REMARK  224  A    between atoms: _530  and  _531
REMARK  225  A    between atoms: _530  and  _533
REMARK  226  A    between atoms: _533  and  _534
REMARK  227  A    between atoms: _534  and  _535
REMARK  228  A    between atoms: _535  and  _536
REMARK  229  A    between atoms: _536  and  _537
REMARK  230  A    between atoms: _541  and  _543
REMARK  231  A    between atoms: _543  and  _544
REMARK  232  A    between atoms: _543  and  _546
REMARK  233  A    between atoms: _546  and  _547
REMARK  234  A    between atoms: _550  and  _552
REMARK  235  A    between atoms: _552  and  _553
REMARK  236  A    between atoms: _552  and  _555
REMARK  237  A    between atoms: _555  and  _556
REMARK  238  A    between atoms: _556  and  _557
REMARK  239  A    between atoms: _560  and  _561
REMARK  240  A    between atoms: _566  and  _568
REMARK  241  A    between atoms: _568  and  _569
REMARK  242  A    between atoms: _568  and  _571
REMARK  243  A    between atoms: _571  and  _572
REMARK  244  A    between atoms: _575  and  _577
REMARK  245  A    between atoms: _577  and  _578
REMARK  246  A    between atoms: _577  and  _580
REMARK  247  A    between atoms: _580  and  _581
REMARK  248  A    between atoms: _581  and  _582
REMARK  249  A    between atoms: _582  and  _583
REMARK  250  A    between atoms: _592  and  _594
REMARK  251  A    between atoms: _594  and  _595
REMARK  252  A    between atoms: _594  and  _597
REMARK  253  A    between atoms: _597  and  _598
REMARK  254  A    between atoms: _598  and  _599
REMARK  255  A    between atoms: _601  and  _603
REMARK  256  A    between atoms: _603  and  _604
REMARK  257  A    between atoms: _603  and  _606
REMARK  258  A    between atoms: _606  and  _607
REMARK                            x       y       z     vdW  Elec       q    Type
REMARK                         _______ _______ _______ _____ _____    ______ ____
ROOT
ATOM      1  C   LEU A   7      35.794   9.423  90.164  0.00  0.00    +0.241 C 
ATOM      2  N   ARG A   8      36.106  10.671  90.436  0.00  0.00    -0.297 N 
ATOM      3  H   ARG A   8      37.107  10.925  90.555  0.00  0.00    +0.150 HD
ATOM      4  O   LEU A   7      34.656   9.057  89.960  0.00  0.00    -0.273 OA
ENDROOT
BRANCH   1   5
ATOM      5  CA  LEU A   7      36.951   8.416  90.090  0.00  0.00    +0.149 C 
BRANCH   5   7
ATOM      6  C   MET A   6      37.846   9.351  88.039  0.00  0.00    +0.241 C 
ATOM      7  N   LEU A   7      38.059   8.973  89.296  0.00  0.00    -0.297 N 
ATOM      8  H   LEU A   7      39.005   9.070  89.717  0.00  0.00    +0.150 HD
ATOM      9  O   MET A   6      36.767   9.120  87.495  0.00  0.00    -0.273 OA
BRANCH   6  10
ATOM     10  CA  MET A   6      38.970  10.015  87.273  0.00  0.00    +0.149 C 
BRANCH  10  13
ATOM     11  C   LEU A   5      38.990  12.062  88.533  0.00  0.00    +0.241 C 
ATOM     12  O   LEU A   5      37.817  12.246  88.253  0.00  0.00    -0.273 OA
ATOM     13  N   MET A   6      39.653  10.964  88.102  0.00  0.00    -0.297 N 
ATOM     14  H   MET A   6      40.646  10.811  88.369  0.00  0.00    +0.150 HD
BRANCH  11  15
ATOM     15  CA  LEU A   5      39.844  13.076  89.328  0.00  0.00    +0.149 C 
BRANCH  15  18
ATOM     16  C   ILE A   4      39.902  11.638  91.293  0.00  0.00    +0.241 C 
ATOM     17  O   ILE A   4      38.682  11.559  91.316  0.00  0.00    -0.273 OA
ATOM     18  N   LEU A   5      40.565  12.390  90.418  0.00  0.00    -0.297 N 
ATOM     19  H   LEU A   5      41.596  12.495  90.503  0.00  0.00    +0.150 HD
BRANCH  16  20
ATOM     20  CA  ILE A   4      40.720  10.824  92.283  0.00  0.00    +0.149 C 
BRANCH  20  22
ATOM     21  C   ASP A   3      41.843   9.295  90.757  0.00  0.00    +0.241 C 
ATOM     22  N   ILE A   4      41.915  10.273  91.649  0.00  0.00    -0.297 N 
ATOM     23  H   ILE A   4      42.847  10.658  91.904  0.00  0.00    +0.150 HD
ATOM     24  O   ASP A   3      40.735   8.818  90.409  0.00  0.00    -0.273 OA
BRANCH  21  25
ATOM     25  CA  ASP A   3      43.136   8.720  90.227  0.00  0.00    +0.160 C 
BRANCH  25  27
ATOM     26  C   LEU A   2      43.641  10.698  88.919  0.00  0.00    +0.241 C 
ATOM     27  N   ASP A   3      44.032   9.777  89.806  0.00  0.00    -0.297 N 
ATOM     28  H   ASP A   3      44.994   9.820  90.199  0.00  0.00    +0.150 HD
ATOM     29  O   LEU A   2      42.549  10.641  88.351  0.00  0.00    -0.273 OA
BRANCH  26  30
ATOM     30  CA  LEU A   2      44.608  11.853  88.649  0.00  0.00    +0.149 C 
BRANCH  30  33
ATOM     31  C   CYS A   1      44.535  12.862  90.833  0.00  0.00    +0.239 C 
ATOM     32  O   CYS A   1      43.337  13.039  90.691  0.00  0.00    -0.274 OA
ATOM     33  N   LEU A   2      45.287  12.285  89.883  0.00  0.00    -0.297 N 
ATOM     34  H   LEU A   2      46.310  12.148  90.013  0.00  0.00    +0.150 HD
BRANCH  31  35
ATOM     35  CA  CYS A   1      45.177  13.327  92.122  0.00  0.00    +0.156 C 
BRANCH  35  36
ATOM     36  N   CYS A   1      46.220  12.401  92.582  0.00  0.00    -0.237 NA
ATOM     37  H   CYS A   1      47.216  12.686  92.669  0.00  0.00    +0.142 HD
ENDBRANCH  35  36
BRANCH  35  38
ATOM     38  CB  CYS A   1      45.869  14.671  91.943  0.00  0.00    +0.095 C 
ATOM     39  SG  CYS A   1      44.613  15.944  91.840  0.00  0.00    -0.080 S 
ENDBRANCH  35  38
ENDBRANCH  31  35
ENDBRANCH  30  33
BRANCH  30  40
ATOM     40  CB  LEU A   2      45.579  11.497  87.544  0.00  0.00    +0.029 C 
BRANCH  40  41
ATOM     41  CG  LEU A   2      44.998  11.253  86.157  0.00  0.00    +0.002 C 
ATOM     42  CD2 LEU A   2      44.074  12.355  85.682  0.00  0.00    +0.000 C 
ATOM     43  CD1 LEU A   2      46.150  11.031  85.184  0.00  0.00    +0.000 C 
ENDBRANCH  40  41
ENDBRANCH  30  40
ENDBRANCH  26  30
ENDBRANCH  25  27
BRANCH  25  44
ATOM     44  CB  ASP A   3      43.773   7.830  91.321  0.00  0.00    +0.143 C 
BRANCH  44  45
ATOM     45  CG  ASP A   3      45.015   7.169  90.719  0.00  0.00    +0.367 C 
ATOM     46  OD2 ASP A   3      45.956   7.913  90.474  0.00  0.00    -0.246 OA
ATOM     47  OD1 ASP A   3      44.901   5.990  90.442  0.00  0.00    -0.246 OA
ENDBRANCH  44  45
ENDBRANCH  25  44
ENDBRANCH  21  25
ENDBRANCH  20  22
BRANCH  20  48
ATOM     48  CB  ILE A   4      41.112  11.602  93.540  0.00  0.00    +0.027 C 
ATOM     49  CG2 ILE A   4      39.915  12.323  94.152  0.00  0.00    +0.002 C 
BRANCH  48  50
ATOM     50  CG1 ILE A   4      41.793  10.709  94.582  0.00  0.00    +0.002 C 
ATOM     51  CD1 ILE A   4      42.409  11.394  95.758  0.00  0.00    +0.000 C 
ENDBRANCH  48  50
ENDBRANCH  20  48
ENDBRANCH  16  20
ENDBRANCH  15  18
BRANCH  15  52
ATOM     52  CB  LEU A   5      40.803  13.780  88.374  0.00  0.00    +0.029 C 
BRANCH  52  53
ATOM     53  CG  LEU A   5      41.364  15.118  88.846  0.00  0.00    +0.002 C 
ATOM     54  CD2 LEU A   5      40.324  16.213  88.851  0.00  0.00    +0.000 C 
ATOM     55  CD1 LEU A   5      42.576  15.526  88.010  0.00  0.00    +0.000 C 
ENDBRANCH  52  53
ENDBRANCH  15  52
ENDBRANCH  11  15
ENDBRANCH  10  13
BRANCH  10  56
ATOM     56  CB  MET A   6      39.959   8.997  86.643  0.00  0.00    +0.041 C 
BRANCH  56  57
ATOM     57  CG  MET A   6      40.889   9.706  85.650  0.00  0.00    +0.060 C 
BRANCH  57  58
ATOM     58  SD  MET A   6      42.006   8.559  84.866  0.00  0.00    -0.139 S 
ATOM     59  CE  MET A   6      42.506   9.359  83.413  0.00  0.00    +0.069 C 
ENDBRANCH  57  58
ENDBRANCH  56  57
ENDBRANCH  10  56
ENDBRANCH   6  10
ENDBRANCH   5   7
BRANCH   5  60
ATOM     60  CB  LEU A   7      37.464   8.033  91.464  0.00  0.00    +0.029 C 
BRANCH  60  61
ATOM     61  CG  LEU A   7      36.390   7.490  92.433  0.00  0.00    +0.002 C 
ATOM     62  CD2 LEU A   7      37.023   7.236  93.797  0.00  0.00    +0.000 C 
ATOM     63  CD1 LEU A   7      35.706   6.241  91.893  0.00  0.00    +0.000 C 
ENDBRANCH  60  61
ENDBRANCH   5  60
ENDBRANCH   1   5
BRANCH   2  64
ATOM     64  CA  ARG A   8      35.093  11.709  90.576  0.00  0.00    +0.149 C 
BRANCH  64  65
ATOM     65  C   ARG A   8      34.260  11.822  89.301  0.00  0.00    +0.241 C 
ATOM     66  O   ARG A   8      33.034  11.823  89.387  0.00  0.00    -0.273 OA
ATOM     67  N   ILE A   9      34.901  11.941  88.137  0.00  0.00    -0.297 N 
ATOM     68  H   ILE A   9      35.938  11.885  88.084  0.00  0.00    +0.150 HD
BRANCH  67  69
ATOM     69  CA  ILE A   9      34.090  12.153  86.939  0.00  0.00    +0.149 C 
BRANCH  69  70
ATOM     70  C   ILE A   9      33.224  10.945  86.630  0.00  0.00    +0.241 C 
ATOM     71  N   CYS A  10      33.818   9.759  86.911  0.00  0.00    -0.296 N 
ATOM     72  H   CYS A  10      34.781   9.725  87.302  0.00  0.00    +0.150 HD
ATOM     73  O   ILE A   9      32.085  11.015  86.175  0.00  0.00    -0.273 OA
BRANCH  71  74
ATOM     74  CA  CYS A  10      33.076   8.535  86.653  0.00  0.00    +0.160 C 
BRANCH  74  75
ATOM     75  C   CYS A  10      31.876   8.346  87.601  0.00  0.00    +0.242 C 
ATOM     76  N   THR A  11      31.927   8.969  88.775  0.00  0.00    -0.295 N 
ATOM     77  H   THR A  11      32.793   9.478  89.045  0.00  0.00    +0.150 HD
ATOM     78  O   CYS A  10      30.914   7.698  87.219  0.00  0.00    -0.273 OA
BRANCH  76  79
ATOM     79  CA  THR A  11      30.788   8.952  89.695  0.00  0.00    +0.176 C 
BRANCH  79  80
ATOM     80  C   THR A  11      29.674   9.843  89.175  0.00  0.00    +0.243 C 
ATOM     81  O   THR A  11      28.541   9.782  89.644  0.00  0.00    -0.273 OA
ATOM     82  N   ARG A  12      29.962  10.698  88.224  0.00  0.00    -0.298 N 
ATOM     83  H   ARG A  12      30.937  10.698  87.862  0.00  0.00    +0.150 HD
BRANCH  82  84
ATOM     84  CA  ARG A  12      29.028  11.652  87.629  0.00  0.00    +0.137 C 
BRANCH  84  85
ATOM     85  C   ARG A  12      28.533  11.165  86.271  0.00  0.00    +0.227 C 
ATOM     86  O   ARG A  12      28.034  11.940  85.463  0.00  0.00    -0.286 OA
ENDBRANCH  84  85
BRANCH  84  87
ATOM     87  CB  ARG A  12      29.709  13.029  87.503  0.00  0.00    +0.031 C 
BRANCH  87  88
ATOM     88  CG  ARG A  12      30.102  13.723  88.775  0.00  0.00    +0.045 C 
BRANCH  88  89
ATOM     89  CD  ARG A  12      29.023  14.689  89.207  0.00  0.00    +0.174 C 
BRANCH  89  90
ATOM     90  NE  ARG A  12      29.405  15.543  90.318  0.00  0.00    -0.265 N 
ATOM     91  HE  ARG A  12      28.958  15.347  91.237  0.00  0.00    +0.259 HD
ATOM     92  CZ  ARG A  12      30.257  16.536  90.275  0.00  0.00    +0.342 C 
ATOM     93  NH2 ARG A  12      30.542  17.263  91.333  0.00  0.00    -0.292 N 
ATOM     94 HH21 ARG A  12      30.085  17.057  92.244  0.00  0.00    +0.255 HD
ATOM     95 HH22 ARG A  12      31.225  18.044  91.259  0.00  0.00    +0.255 HD
ATOM     96  NH1 ARG A  12      30.833  16.814  89.123  0.00  0.00    -0.292 N 
ATOM     97 HH11 ARG A  12      31.514  17.597  89.058  0.00  0.00    +0.255 HD
ATOM     98 HH12 ARG A  12      30.606  16.250  88.279  0.00  0.00    +0.255 HD
ENDBRANCH  89  90
ENDBRANCH  88  89
ENDBRANCH  87  88
ENDBRANCH  84  87
ENDBRANCH  82  84
ENDBRANCH  79  80
BRANCH  79  99
ATOM     99  CB  THR A  11      31.116   9.338  91.131  0.00  0.00    +0.137 C 
ATOM    100  CG2 THR A  11      32.411   8.642  91.574  0.00  0.00    +0.034 C 
BRANCH  99 101
ATOM    101  OG1 THR A  11      31.350  10.741  91.277  0.00  0.00    -0.382 OA
ATOM    102  HG1 THR A  11      32.113  11.008  90.706  0.00  0.00    +0.210 HD
ENDBRANCH  99 101
ENDBRANCH  79  99
ENDBRANCH  76  79
ENDBRANCH  74  75
BRANCH  74 103
ATOM    103  CB  CYS A  10      34.005   7.325  86.689  0.00  0.00    +0.098 C 
ATOM    104  SG  CYS A  10      35.139   7.245  85.297  0.00  0.00    -0.080 S 
ENDBRANCH  74 103
ENDBRANCH  71  74
ENDBRANCH  69  70
BRANCH  69 105
ATOM    105  CB  ILE A   9      34.948  12.668  85.732  0.00  0.00    +0.027 C 
ATOM    106  CG2 ILE A   9      35.825  11.595  85.157  0.00  0.00    +0.002 C 
BRANCH 105 107
ATOM    107  CG1 ILE A   9      34.086  13.352  84.669  0.00  0.00    +0.002 C 
ATOM    108  CD1 ILE A   9      33.224  14.483  85.115  0.00  0.00    +0.000 C 
ENDBRANCH 105 107
ENDBRANCH  69 105
ENDBRANCH  67  69
ENDBRANCH  64  65
BRANCH  64 109
ATOM    109  CB  ARG A   8      35.724  13.032  90.975  0.00  0.00    +0.033 C 
BRANCH 109 110
ATOM    110  CG  ARG A   8      36.050  13.164  92.449  0.00  0.00    +0.045 C 
BRANCH 110 111
ATOM    111  CD  ARG A   8      36.733  14.464  92.838  0.00  0.00    +0.174 C 
BRANCH 111 112
ATOM    112  NE  ARG A   8      36.741  14.599  94.286  0.00  0.00    -0.265 N 
ATOM    113  CZ  ARG A   8      36.632  15.734  94.962  0.00  0.00    +0.342 C 
ATOM    114  NH2 ARG A   8      36.602  15.717  96.293  0.00  0.00    -0.292 N 
ATOM    115 HH21 ARG A   8      36.516  16.608  96.823  0.00  0.00    +0.255 HD
ATOM    116 HH22 ARG A   8      36.664  14.813  96.803  0.00  0.00    +0.255 HD
ATOM    117  NH1 ARG A   8      36.569  16.913  94.381  0.00  0.00    -0.292 N 
ATOM    118 HH11 ARG A   8      36.484  17.774  94.959  0.00  0.00    +0.255 HD
ATOM    119 HH12 ARG A   8      36.604  16.984  93.344  0.00  0.00    +0.255 HD
ATOM    120  HE  ARG A   8      36.841  13.726  94.842  0.00  0.00    +0.259 HD
ENDBRANCH 111 112
ENDBRANCH 110 111
ENDBRANCH 109 110
ENDBRANCH  64 109
ENDBRANCH   2  64
TORSDOF 51
REMARK  Name = ../refined-set-2016/1fcy/1fcy_pocket.pdb
REMARK  258 active torsions:
REMARK  status: ('A' for Active; 'I' for Inactive)
REMARK    1  A    between atoms: _1  and  _3
REMARK    2  A    between atoms: _3  and  _4
REMARK    3  A    between atoms: _3  and  _6
REMARK    4  A    between atoms: _6  and  _7
REMARK    5  A    between atoms: _10  and  _12
REMARK    6  A    between atoms: _12  and  _13
REMARK    7  A    between atoms: _12  and  _15
REMARK    8  A    between atoms: _15  and  _16
REMARK    9  A    between atoms: _23  and  _24
REMARK   10  A    between atoms: _29  and  _31
REMARK   11  A    between atoms: _31  and  _32
REMARK   12  A    between atoms: _31  and  _34
REMARK   13  A    between atoms: _34  and  _35
REMARK   14  A    between atoms: _38  and  _40
REMARK   15  A    between atoms: _40  and  _41
REMARK   16  A    between atoms: _40  and  _43
REMARK   17  A    between atoms: _43  and  _44
REMARK   18  A    between atoms: _54  and  _56
REMARK   19  A    between atoms: _56  and  _57
REMARK   20  A    between atoms: _56  and  _59
REMARK   21  A    between atoms: _59  and  _60
REMARK   22  A    between atoms: _60  and  _61
REMARK   23  A    between atoms: _61  and  _62
REMARK   24  A    between atoms: _62  and  _63
REMARK   25  A    between atoms: _67  and  _69
REMARK   26  A    between atoms: _69  and  _70
REMARK   27  A    between atoms: _69  and  _72
REMARK   28  A    between atoms: _72  and  _73
REMARK   29  A    between atoms: _79  and  _81
REMARK   30  A    between atoms: _81  and  _82
REMARK   31  A    between atoms: _81  and  _84
REMARK   32  A    between atoms: _84  and  _85
REMARK   33  A    between atoms: _87  and  _89
REMARK   34  A    between atoms: _89  and  _90
REMARK   35  A    between atoms: _89  and  _92
REMARK   36  A    between atoms: _92  and  _93
REMARK   37  A    between atoms: _93  and  _94
REMARK   38  A    between atoms: _97  and  _99
REMARK   39  A    between atoms: _99  and  _100
REMARK   40  A    between atoms: _99  and  _102
REMARK   41  A    between atoms: _102  and  _103
REMARK   42  A    between atoms: _106  and  _108
REMARK   43  A    between atoms: _108  and  _109
REMARK   44  A    between atoms: _112  and  _114
REMARK   45  A    between atoms: _114  and  _115
REMARK   46  A    between atoms: _114  and  _117
REMARK   47  A    between atoms: _117  and  _118
REMARK   48  A    between atoms: _121  and  _123
REMARK   49  A    between atoms: _123  and  _124
REMARK   50  A    between atoms: _123  and  _126
REMARK   51  A    between atoms: _127  and  _128
REMARK   52  A    between atoms: _128  and  _129
REMARK   53  A    between atoms: _129  and  _130
REMARK   54  A    between atoms: _134  and  _136
REMARK   55  A    between atoms: _136  and  _137
REMARK   56  A    between atoms: _136  and  _139
REMARK   57  A    between atoms: _141  and  _143
REMARK   58  A    between atoms: _143  and  _144
REMARK   59  A    between atoms: _143  and  _146
REMARK   60  A    between atoms: _146  and  _147
REMARK   61  A    between atoms: _150  and  _152
REMARK   62  A    between atoms: _152  and  _153
REMARK   63  A    between atoms: _152  and  _155
REMARK   64  A    between atoms: _155  and  _156
REMARK   65  A    between atoms: _156  and  _157
REMARK   66  A    between atoms: _157  and  _158
REMARK   67  A    between atoms: _158  and  _159
REMARK   68  A    between atoms: _163  and  _165
REMARK   69  A    between atoms: _165  and  _166
REMARK   70  A    between atoms: _165  and  _168
REMARK   71  A    between atoms: _168  and  _169
REMARK   72  A    between atoms: _172  and  _174
REMARK   73  A    between atoms: _174  and  _175
REMARK   74  A    between atoms: _174  and  _177
REMARK   75  A    between atoms: _179  and  _181
REMARK   76  A    between atoms: _181  and  _182
REMARK   77  A    between atoms: _181  and  _184
REMARK   78  A    between atoms: _184  and  _185
REMARK   79  A    between atoms: _188  and  _190
REMARK   80  A    between atoms: _190  and  _191
REMARK   81  A    between atoms: _190  and  _193
REMARK   82  A    between atoms: _193  and  _194
REMARK   83  A    between atoms: _197  and  _199
REMARK   84  A    between atoms: _199  and  _200
REMARK   85  A    between atoms: _199  and  _202
REMARK   86  A    between atoms: _202  and  _203
REMARK   87  A    between atoms: _206  and  _208
REMARK   88  A    between atoms: _208  and  _209
REMARK   89  A    between atoms: _208  and  _211
REMARK   90  A    between atoms: _211  and  _212
REMARK   91  A    between atoms: _215  and  _217
REMARK   92  A    between atoms: _217  and  _218
REMARK   93  A    between atoms: _217  and  _220
REMARK   94  A    between atoms: _220  and  _221
REMARK   95  A    between atoms: _221  and  _222
REMARK   96  A    between atoms: _224  and  _226
REMARK   97  A    between atoms: _226  and  _227
REMARK   98  A    between atoms: _226  and  _229
REMARK   99  A    between atoms: _229  and  _230
REMARK  100  A    between atoms: _233  and  _235
REMARK  101  A    between atoms: _235  and  _236
REMARK  102  A    between atoms: _235  and  _238
REMARK  103  A    between atoms: _238  and  _239
REMARK  104  A    between atoms: _239  and  _240
REMARK  105  A    between atoms: _240  and  _241
REMARK  106  A    between atoms: _250  and  _252
REMARK  107  A    between atoms: _252  and  _253
REMARK  108  A    between atoms: _252  and  _255
REMARK  109  A    between atoms: _255  and  _256
REMARK  110  A    between atoms: _259  and  _261
REMARK  111  A    between atoms: _261  and  _262
REMARK  112  A    between atoms: _261  and  _264
REMARK  113  A    between atoms: _266  and  _268
REMARK  114  A    between atoms: _268  and  _269
REMARK  115  A    between atoms: _268  and  _271
REMARK  116  A    between atoms: _271  and  _272
REMARK  117  A    between atoms: _275  and  _277
REMARK  118  A    between atoms: _277  and  _278
REMARK  119  A    between atoms: _277  and  _280
REMARK  120  A    between atoms: _280  and  _281
REMARK  121  A    between atoms: _281  and  _282
REMARK  122  A    between atoms: _282  and  _283
REMARK  123  A    between atoms: _292  and  _294
REMARK  124  A    between atoms: _294  and  _295
REMARK  125  A    between atoms: _294  and  _297
REMARK  126  A    between atoms: _297  and  _298
REMARK  127  A    between atoms: _298  and  _299
REMARK  128  A    between atoms: _301  and  _303
REMARK  129  A    between atoms: _303  and  _304
REMARK  130  A    between atoms: _303  and  _306
REMARK  131  A    between atoms: _306  and  _307
REMARK  132  A    between atoms: _310  and  _312
REMARK  133  A    between atoms: _312  and  _313
REMARK  134  A    between atoms: _312  and  _315
REMARK  135  A    between atoms: _315  and  _316
REMARK  136  A    between atoms: _322  and  _324
REMARK  137  A    between atoms: _324  and  _325
REMARK  138  A    between atoms: _324  and  _327
REMARK  139  A    between atoms: _327  and  _328
REMARK  140  A    between atoms: _330  and  _332
REMARK  141  A    between atoms: _332  and  _333
REMARK  142  A    between atoms: _332  and  _335
REMARK  143  A    between atoms: _335  and  _336
REMARK  144  A    between atoms: _339  and  _341
REMARK  145  A    between atoms: _341  and  _342
REMARK  146  A    between atoms: _344  and  _346
REMARK  147  A    between atoms: _346  and  _347
REMARK  148  A    between atoms: _346  and  _349
REMARK  149  A    between atoms: _349  and  _350
REMARK  150  A    between atoms: _353  and  _355
REMARK  151  A    between atoms: _355  and  _356
REMARK  152  A    between atoms: _355  and  _358
REMARK  153  A    between atoms: _358  and  _359
REMARK  154  A    between atoms: _359  and  _360
REMARK  155  A    between atoms: _362  and  _364
REMARK  156  A    between atoms: _364  and  _365
REMARK  157  A    between atoms: _364  and  _367
REMARK  158  A    between atoms: _367  and  _368
REMARK  159  A    between atoms: _373  and  _375
REMARK  160  A    between atoms: _375  and  _376
REMARK  161  A    between atoms: _379  and  _381
REMARK  162  A    between atoms: _381  and  _382
REMARK  163  A    between atoms: _384  and  _386
REMARK  164  A    between atoms: _386  and  _387
REMARK  165  A    between atoms: _386  and  _389
REMARK  166  A    between atoms: _389  and  _390
REMARK  167  A    between atoms: _396  and  _398
REMARK  168  A    between atoms: _398  and  _399
REMARK  169  A    between atoms: _401  and  _403
REMARK  170  A    between atoms: _403  and  _404
REMARK  171  A    between atoms: _403  and  _406
REMARK  172  A    between atoms: _406  and  _407
REMARK  173  A    between atoms: _410  and  _412
REMARK  174  A    between atoms: _412  and  _413
REMARK  175  A    between atoms: _412  and  _415
REMARK  176  A    between atoms: _415  and  _416
REMARK  177  A    between atoms: _419  and  _421
REMARK  178  A    between atoms: _421  and  _422
REMARK  179  A    between atoms: _421  and  _424
REMARK  180  A    between atoms: _427  and  _429
REMARK  181  A    between atoms: _429  and  _430
REMARK  182  A    between atoms: _429  and  _432
REMARK  183  A    between atoms: _432  and  _433
REMARK  184  A    between atoms: _436  and  _438
REMARK  185  A    between atoms: _438  and  _439
REMARK  186  A    between atoms: _438  and  _441
REMARK  187  A    between atoms: _441  and  _442
REMARK  188  A    between atoms: _444  and  _446
REMARK  189  A    between atoms: _446  and  _447
REMARK  190  A    between atoms: _446  and  _449
REMARK  191  A    between atoms: _449  and  _450
REMARK  192  A    between atoms: _450  and  _451
REMARK  193  A    between atoms: _451  and  _452
REMARK  194  A    between atoms: _452  and  _453
REMARK  195  A    between atoms: _457  and  _459
REMARK  196  A    between atoms: _459  and  _460
REMARK  197  A    between atoms: _462  and  _464
REMARK  198  A    between atoms: _464  and  _465
REMARK  199  A    between atoms: _468  and  _470
REMARK  200  A    between atoms: _470  and  _471
REMARK  201  A    between atoms: _470  and  _473
REMARK  202  A    between atoms: _474  and  _475
REMARK  203  A    between atoms: _478  and  _480
REMARK  204  A    between atoms: _480  and  _481
REMARK  205  A    between atoms: _480  and  _483
REMARK  206  A    between atoms: _483  and  _484
REMARK  207  A    between atoms: _484  and  _485
REMARK  208  A    between atoms: _485  and  _486
REMARK  209  A    between atoms: _495  and  _497
REMARK  210  A    between atoms: _497  and  _498
REMARK  211  A    between atoms: _501  and  _503
REMARK  212  A    between atoms: _503  and  _504
REMARK  213  A    between atoms: _503  and  _506
REMARK  214  A    between atoms: _506  and  _507
REMARK  215  A    between atoms: _510  and  _512
REMARK  216  A    between atoms: _512  and  _513
REMARK  217  A    between atoms: _512  and  _515
REMARK  218  A    between atoms: _515  and  _516
REMARK  219  A    between atoms: _519  and  _521
REMARK  220  A    between atoms: _521  and  _522
REMARK  221  A    between atoms: _521  and  _524
REMARK  222  A    between atoms: _524  and  _525
REMARK  223  A    between atoms: _528  and  _530
REMARK  224  A    between atoms: _530  and  _531
REMARK  225  A    between atoms: _530  and  _533
REMARK  226  A    between atoms: _533  and  _534
REMARK  227  A    between atoms: _534  and  _535
REMARK  228  A    between atoms: _535  and  _536
REMARK  229  A    between atoms: _536  and  _537
REMARK  230  A    between atoms: _541  and  _543
REMARK  231  A    between atoms: _543  and  _544
REMARK  232  A    between atoms: _543  and  _546
REMARK  233  A    between atoms: _546  and  _547
REMARK  234  A    between atoms: _550  and  _552
REMARK  235  A    between atoms: _552  and  _553
REMARK  236  A    between atoms: _552  and  _555
REMARK  237  A    between atoms: _555  and  _556
REMARK  238  A    between atoms: _556  and  _557
REMARK  239  A    between atoms: _560  and  _561
REMARK  240  A    between atoms: _566  and  _568
REMARK  241  A    between atoms: _568  and  _569
REMARK  242  A    between atoms: _568  and  _571
REMARK  243  A    between atoms: _571  and  _572
REMARK  244  A    between atoms: _575  and  _577
REMARK  245  A    between atoms: _577  and  _578
REMARK  246  A    between atoms: _577  and  _580
REMARK  247  A    between atoms: _580  and  _581
REMARK  248  A    between atoms: _581  and  _582
REMARK  249  A    between atoms: _582  and  _583
REMARK  250  A    between atoms: _592  and  _594
REMARK  251  A    between atoms: _594  and  _595
REMARK  252  A    between atoms: _594  and  _597
REMARK  253  A    between atoms: _597  and  _598
REMARK  254  A    between atoms: _598  and  _599
REMARK  255  A    between atoms: _601  and  _603
REMARK  256  A    between atoms: _603  and  _604
REMARK  257  A    between atoms: _603  and  _606
REMARK  258  A    between atoms: _606  and  _607
REMARK                            x       y       z     vdW  Elec       q    Type
REMARK                         _______ _______ _______ _____ _____    ______ ____
ROOT
ATOM      1  C   PHE A   3      30.680  19.278  86.999  0.00  0.00    +0.241 C 
ATOM      2  N   SER A   4      31.488  19.875  87.839  0.00  0.00    -0.295 N 
ATOM      3  H   SER A   4      32.509  19.907  87.645  0.00  0.00    +0.150 HD
ATOM      4  O   PHE A   3      29.460  19.417  87.073  0.00  0.00    -0.273 OA
ENDROOT
BRANCH   2   5
ATOM      5  CA  SER A   4      30.954  20.497  89.050  0.00  0.00    +0.178 C 
BRANCH   5   6
ATOM      6  C   SER A   4      30.266  21.836  88.854  0.00  0.00    +0.243 C 
ATOM      7  O   SER A   4      29.617  22.325  89.769  0.00  0.00    -0.273 OA
ATOM      8  N   ASP A   5      30.381  22.394  87.674  0.00  0.00    -0.296 N 
ATOM      9  H   ASP A   5      31.053  21.994  86.988  0.00  0.00    +0.150 HD
BRANCH   8  10
ATOM     10  CA  ASP A   5      29.587  23.567  87.295  0.00  0.00    +0.160 C 
BRANCH  10  11
ATOM     11  C   ASP A   5      28.290  23.153  86.615  0.00  0.00    +0.241 C 
ATOM     12  N   GLY A   6      28.028  21.857  86.491  0.00  0.00    -0.295 N 
ATOM     13  H   GLY A   6      28.693  21.180  86.916  0.00  0.00    +0.150 HD
ATOM     14  O   ASP A   5      27.544  24.044  86.146  0.00  0.00    -0.273 OA
BRANCH  12  15
ATOM     15  CA  GLY A   6      26.874  21.335  85.800  0.00  0.00    +0.176 C 
BRANCH  15  16
ATOM     16  C   GLY A   6      27.076  20.976  84.342  0.00  0.00    +0.243 C 
ATOM     17  N   LEU A   7      28.228  21.306  83.776  0.00  0.00    -0.298 N 
ATOM     18  H   LEU A   7      28.963  21.789  84.331  0.00  0.00    +0.150 HD
ATOM     19  O   GLY A   6      26.203  20.360  83.700  0.00  0.00    -0.273 OA
BRANCH  17  20
ATOM     20  CA  LEU A   7      28.462  20.988  82.366  0.00  0.00    +0.137 C 
BRANCH  20  21
ATOM     21  C   LEU A   7      28.339  19.491  82.145  0.00  0.00    +0.227 C 
ATOM     22  O   LEU A   7      28.967  18.734  82.875  0.00  0.00    -0.286 OA
ENDBRANCH  20  21
BRANCH  20  23
ATOM     23  CB  LEU A   7      29.872  21.401  81.943  0.00  0.00    +0.028 C 
BRANCH  23  24
ATOM     24  CG  LEU A   7      30.235  21.059  80.484  0.00  0.00    +0.002 C 
ATOM     25  CD2 LEU A   7      31.724  21.328  80.272  0.00  0.00    +0.000 C 
ATOM     26  CD1 LEU A   7      29.368  21.805  79.504  0.00  0.00    +0.000 C 
ENDBRANCH  23  24
ENDBRANCH  20  23
ENDBRANCH  17  20
ENDBRANCH  15  16
ENDBRANCH  12  15
ENDBRANCH  10  11
BRANCH  10  27
ATOM     27  CB  ASP A   5      30.398  24.470  86.373  0.00  0.00    +0.143 C 
BRANCH  27  28
ATOM     28  CG  ASP A   5      30.608  23.935  84.961  0.00  0.00    +0.367 C 
ATOM     29  OD2 ASP A   5      30.543  22.718  84.809  0.00  0.00    -0.246 OA
ATOM     30  OD1 ASP A   5      30.800  24.783  84.035  0.00  0.00    -0.246 OA
ENDBRANCH  27  28
ENDBRANCH  10  27
ENDBRANCH   8  10
ENDBRANCH   5   6
BRANCH   5  31
ATOM     31  CB  SER A   4      32.077  20.625  90.082  0.00  0.00    +0.166 C 
BRANCH  31  32
ATOM     32  OG  SER A   4      32.439  19.355  90.630  0.00  0.00    -0.380 OA
ATOM     33  H   SER A   4      32.750  18.760  89.903  0.00  0.00    +0.211 HD
ENDBRANCH  31  32
ENDBRANCH   5  31
ENDBRANCH   2   5
BRANCH   1  34
ATOM     34  CA  PHE A   3      31.293  18.415  85.909  0.00  0.00    +0.153 C 
BRANCH  34  37
ATOM     35  C   THR A   2      29.788  16.494  85.454  0.00  0.00    +0.243 C 
ATOM     36  O   THR A   2      30.186  15.851  86.433  0.00  0.00    -0.273 OA
ATOM     37  N   PHE A   3      30.289  17.691  85.153  0.00  0.00    -0.297 N 
ATOM     38  H   PHE A   3      29.925  18.150  84.294  0.00  0.00    +0.150 HD
BRANCH  35  39
ATOM     39  CA  THR A   2      28.693  15.952  84.540  0.00  0.00    +0.176 C 
BRANCH  39  41
ATOM     40  C   MET A   1      29.193  14.307  82.808  0.00  0.00    +0.238 C 
ATOM     41  N   THR A   2      29.011  14.601  84.090  0.00  0.00    -0.295 N 
ATOM     42  H   THR A   2      29.098  13.843  84.797  0.00  0.00    +0.150 HD
ATOM     43  O   MET A   1      29.178  15.123  81.886  0.00  0.00    -0.274 OA
BRANCH  40  44
ATOM     44  CA  MET A   1      29.399  12.824  82.498  0.00  0.00    +0.146 C 
BRANCH  44  45
ATOM     45  N   MET A   1      28.772  12.498  81.213  0.00  0.00    -0.238 NA
ATOM     46  H   MET A   1      29.058  13.037  80.371  0.00  0.00    +0.142 HD
ENDBRANCH  44  45
BRANCH  44  47
ATOM     47  CB  MET A   1      30.870  12.382  82.510  0.00  0.00    +0.038 C 
BRANCH  47  48
ATOM     48  CG  MET A   1      31.050  10.872  82.350  0.00  0.00    +0.060 C 
BRANCH  48  49
ATOM     49  SD  MET A   1      32.775  10.376  82.381  0.00  0.00    -0.139 S 
ATOM     50  CE  MET A   1      32.528   8.593  82.244  0.00  0.00    +0.069 C 
ENDBRANCH  48  49
ENDBRANCH  47  48
ENDBRANCH  44  47
ENDBRANCH  40  44
ENDBRANCH  39  41
BRANCH  39  51
ATOM     51  CB  THR A   2      27.348  15.944  85.258  0.00  0.00    +0.137 C 
ATOM     52  CG2 THR A   2      27.018  17.318  85.841  0.00  0.00    +0.034 C 
BRANCH  51  53
ATOM     53  OG1 THR A   2      26.331  15.558  84.307  0.00  0.00    -0.382 OA
ATOM     54  HG1 THR A   2      26.535  14.655  83.956  0.00  0.00    +0.210 HD
ENDBRANCH  51  53
ENDBRANCH  39  51
ENDBRANCH  35  39
ENDBRANCH  34  37
BRANCH  34  55
ATOM     55  CB  PHE A   3      32.121  19.276  84.952  0.00  0.00    +0.055 C 
BRANCH  55  56
ATOM     56  CG  PHE A   3      32.821  18.456  83.928  0.00  0.00    -0.020 A 
ATOM     57  CD2 PHE A   3      34.119  18.056  84.146  0.00  0.00    -0.004 A 
ATOM     58  CE2 PHE A   3      34.778  17.258  83.235  0.00  0.00    -0.000 A 
ATOM     59  CZ  PHE A   3      34.165  16.809  82.066  0.00  0.00    -0.000 A 
ATOM     60  CE1 PHE A   3      32.864  17.213  81.835  0.00  0.00    -0.000 A 
ATOM     61  CD1 PHE A   3      32.211  18.021  82.747  0.00  0.00    -0.004 A 
ENDBRANCH  55  56
ENDBRANCH  34  55
ENDBRANCH   1  34
TORSDOF 27
REMARK  Name = ../refined-set-2016/1fcy/1fcy_pocket.pdb
REMARK  258 active torsions:
REMARK  status: ('A' for Active; 'I' for Inactive)
REMARK    1  A    between atoms: _1  and  _3
REMARK    2  A    between atoms: _3  and  _4
REMARK    3  A    between atoms: _3  and  _6
REMARK    4  A    between atoms: _6  and  _7
REMARK    5  A    between atoms: _10  and  _12
REMARK    6  A    between atoms: _12  and  _13
REMARK    7  A    between atoms: _12  and  _15
REMARK    8  A    between atoms: _15  and  _16
REMARK    9  A    between atoms: _23  and  _24
REMARK   10  A    between atoms: _29  and  _31
REMARK   11  A    between atoms: _31  and  _32
REMARK   12  A    between atoms: _31  and  _34
REMARK   13  A    between atoms: _34  and  _35
REMARK   14  A    between atoms: _38  and  _40
REMARK   15  A    between atoms: _40  and  _41
REMARK   16  A    between atoms: _40  and  _43
REMARK   17  A    between atoms: _43  and  _44
REMARK   18  A    between atoms: _54  and  _56
REMARK   19  A    between atoms: _56  and  _57
REMARK   20  A    between atoms: _56  and  _59
REMARK   21  A    between atoms: _59  and  _60
REMARK   22  A    between atoms: _60  and  _61
REMARK   23  A    between atoms: _61  and  _62
REMARK   24  A    between atoms: _62  and  _63
REMARK   25  A    between atoms: _67  and  _69
REMARK   26  A    between atoms: _69  and  _70
REMARK   27  A    between atoms: _69  and  _72
REMARK   28  A    between atoms: _72  and  _73
REMARK   29  A    between atoms: _79  and  _81
REMARK   30  A    between atoms: _81  and  _82
REMARK   31  A    between atoms: _81  and  _84
REMARK   32  A    between atoms: _84  and  _85
REMARK   33  A    between atoms: _87  and  _89
REMARK   34  A    between atoms: _89  and  _90
REMARK   35  A    between atoms: _89  and  _92
REMARK   36  A    between atoms: _92  and  _93
REMARK   37  A    between atoms: _93  and  _94
REMARK   38  A    between atoms: _97  and  _99
REMARK   39  A    between atoms: _99  and  _100
REMARK   40  A    between atoms: _99  and  _102
REMARK   41  A    between atoms: _102  and  _103
REMARK   42  A    between atoms: _106  and  _108
REMARK   43  A    between atoms: _108  and  _109
REMARK   44  A    between atoms: _112  and  _114
REMARK   45  A    between atoms: _114  and  _115
REMARK   46  A    between atoms: _114  and  _117
REMARK   47  A    between atoms: _117  and  _118
REMARK   48  A    between atoms: _121  and  _123
REMARK   49  A    between atoms: _123  and  _124
REMARK   50  A    between atoms: _123  and  _126
REMARK   51  A    between atoms: _127  and  _128
REMARK   52  A    between atoms: _128  and  _129
REMARK   53  A    between atoms: _129  and  _130
REMARK   54  A    between atoms: _134  and  _136
REMARK   55  A    between atoms: _136  and  _137
REMARK   56  A    between atoms: _136  and  _139
REMARK   57  A    between atoms: _141  and  _143
REMARK   58  A    between atoms: _143  and  _144
REMARK   59  A    between atoms: _143  and  _146
REMARK   60  A    between atoms: _146  and  _147
REMARK   61  A    between atoms: _150  and  _152
REMARK   62  A    between atoms: _152  and  _153
REMARK   63  A    between atoms: _152  and  _155
REMARK   64  A    between atoms: _155  and  _156
REMARK   65  A    between atoms: _156  and  _157
REMARK   66  A    between atoms: _157  and  _158
REMARK   67  A    between atoms: _158  and  _159
REMARK   68  A    between atoms: _163  and  _165
REMARK   69  A    between atoms: _165  and  _166
REMARK   70  A    between atoms: _165  and  _168
REMARK   71  A    between atoms: _168  and  _169
REMARK   72  A    between atoms: _172  and  _174
REMARK   73  A    between atoms: _174  and  _175
REMARK   74  A    between atoms: _174  and  _177
REMARK   75  A    between atoms: _179  and  _181
REMARK   76  A    between atoms: _181  and  _182
REMARK   77  A    between atoms: _181  and  _184
REMARK   78  A    between atoms: _184  and  _185
REMARK   79  A    between atoms: _188  and  _190
REMARK   80  A    between atoms: _190  and  _191
REMARK   81  A    between atoms: _190  and  _193
REMARK   82  A    between atoms: _193  and  _194
REMARK   83  A    between atoms: _197  and  _199
REMARK   84  A    between atoms: _199  and  _200
REMARK   85  A    between atoms: _199  and  _202
REMARK   86  A    between atoms: _202  and  _203
REMARK   87  A    between atoms: _206  and  _208
REMARK   88  A    between atoms: _208  and  _209
REMARK   89  A    between atoms: _208  and  _211
REMARK   90  A    between atoms: _211  and  _212
REMARK   91  A    between atoms: _215  and  _217
REMARK   92  A    between atoms: _217  and  _218
REMARK   93  A    between atoms: _217  and  _220
REMARK   94  A    between atoms: _220  and  _221
REMARK   95  A    between atoms: _221  and  _222
REMARK   96  A    between atoms: _224  and  _226
REMARK   97  A    between atoms: _226  and  _227
REMARK   98  A    between atoms: _226  and  _229
REMARK   99  A    between atoms: _229  and  _230
REMARK  100  A    between atoms: _233  and  _235
REMARK  101  A    between atoms: _235  and  _236
REMARK  102  A    between atoms: _235  and  _238
REMARK  103  A    between atoms: _238  and  _239
REMARK  104  A    between atoms: _239  and  _240
REMARK  105  A    between atoms: _240  and  _241
REMARK  106  A    between atoms: _250  and  _252
REMARK  107  A    between atoms: _252  and  _253
REMARK  108  A    between atoms: _252  and  _255
REMARK  109  A    between atoms: _255  and  _256
REMARK  110  A    between atoms: _259  and  _261
REMARK  111  A    between atoms: _261  and  _262
REMARK  112  A    between atoms: _261  and  _264
REMARK  113  A    between atoms: _266  and  _268
REMARK  114  A    between atoms: _268  and  _269
REMARK  115  A    between atoms: _268  and  _271
REMARK  116  A    between atoms: _271  and  _272
REMARK  117  A    between atoms: _275  and  _277
REMARK  118  A    between atoms: _277  and  _278
REMARK  119  A    between atoms: _277  and  _280
REMARK  120  A    between atoms: _280  and  _281
REMARK  121  A    between atoms: _281  and  _282
REMARK  122  A    between atoms: _282  and  _283
REMARK  123  A    between atoms: _292  and  _294
REMARK  124  A    between atoms: _294  and  _295
REMARK  125  A    between atoms: _294  and  _297
REMARK  126  A    between atoms: _297  and  _298
REMARK  127  A    between atoms: _298  and  _299
REMARK  128  A    between atoms: _301  and  _303
REMARK  129  A    between atoms: _303  and  _304
REMARK  130  A    between atoms: _303  and  _306
REMARK  131  A    between atoms: _306  and  _307
REMARK  132  A    between atoms: _310  and  _312
REMARK  133  A    between atoms: _312  and  _313
REMARK  134  A    between atoms: _312  and  _315
REMARK  135  A    between atoms: _315  and  _316
REMARK  136  A    between atoms: _322  and  _324
REMARK  137  A    between atoms: _324  and  _325
REMARK  138  A    between atoms: _324  and  _327
REMARK  139  A    between atoms: _327  and  _328
REMARK  140  A    between atoms: _330  and  _332
REMARK  141  A    between atoms: _332  and  _333
REMARK  142  A    between atoms: _332  and  _335
REMARK  143  A    between atoms: _335  and  _336
REMARK  144  A    between atoms: _339  and  _341
REMARK  145  A    between atoms: _341  and  _342
REMARK  146  A    between atoms: _344  and  _346
REMARK  147  A    between atoms: _346  and  _347
REMARK  148  A    between atoms: _346  and  _349
REMARK  149  A    between atoms: _349  and  _350
REMARK  150  A    between atoms: _353  and  _355
REMARK  151  A    between atoms: _355  and  _356
REMARK  152  A    between atoms: _355  and  _358
REMARK  153  A    between atoms: _358  and  _359
REMARK  154  A    between atoms: _359  and  _360
REMARK  155  A    between atoms: _362  and  _364
REMARK  156  A    between atoms: _364  and  _365
REMARK  157  A    between atoms: _364  and  _367
REMARK  158  A    between atoms: _367  and  _368
REMARK  159  A    between atoms: _373  and  _375
REMARK  160  A    between atoms: _375  and  _376
REMARK  161  A    between atoms: _379  and  _381
REMARK  162  A    between atoms: _381  and  _382
REMARK  163  A    between atoms: _384  and  _386
REMARK  164  A    between atoms: _386  and  _387
REMARK  165  A    between atoms: _386  and  _389
REMARK  166  A    between atoms: _389  and  _390
REMARK  167  A    between atoms: _396  and  _398
REMARK  168  A    between atoms: _398  and  _399
REMARK  169  A    between atoms: _401  and  _403
REMARK  170  A    between atoms: _403  and  _404
REMARK  171  A    between atoms: _403  and  _406
REMARK  172  A    between atoms: _406  and  _407
REMARK  173  A    between atoms: _410  and  _412
REMARK  174  A    between atoms: _412  and  _413
REMARK  175  A    between atoms: _412  and  _415
REMARK  176  A    between atoms: _415  and  _416
REMARK  177  A    between atoms: _419  and  _421
REMARK  178  A    between atoms: _421  and  _422
REMARK  179  A    between atoms: _421  and  _424
REMARK  180  A    between atoms: _427  and  _429
REMARK  181  A    between atoms: _429  and  _430
REMARK  182  A    between atoms: _429  and  _432
REMARK  183  A    between atoms: _432  and  _433
REMARK  184  A    between atoms: _436  and  _438
REMARK  185  A    between atoms: _438  and  _439
REMARK  186  A    between atoms: _438  and  _441
REMARK  187  A    between atoms: _441  and  _442
REMARK  188  A    between atoms: _444  and  _446
REMARK  189  A    between atoms: _446  and  _447
REMARK  190  A    between atoms: _446  and  _449
REMARK  191  A    between atoms: _449  and  _450
REMARK  192  A    between atoms: _450  and  _451
REMARK  193  A    between atoms: _451  and  _452
REMARK  194  A    between atoms: _452  and  _453
REMARK  195  A    between atoms: _457  and  _459
REMARK  196  A    between atoms: _459  and  _460
REMARK  197  A    between atoms: _462  and  _464
REMARK  198  A    between atoms: _464  and  _465
REMARK  199  A    between atoms: _468  and  _470
REMARK  200  A    between atoms: _470  and  _471
REMARK  201  A    between atoms: _470  and  _473
REMARK  202  A    between atoms: _474  and  _475
REMARK  203  A    between atoms: _478  and  _480
REMARK  204  A    between atoms: _480  and  _481
REMARK  205  A    between atoms: _480  and  _483
REMARK  206  A    between atoms: _483  and  _484
REMARK  207  A    between atoms: _484  and  _485
REMARK  208  A    between atoms: _485  and  _486
REMARK  209  A    between atoms: _495  and  _497
REMARK  210  A    between atoms: _497  and  _498
REMARK  211  A    between atoms: _501  and  _503
REMARK  212  A    between atoms: _503  and  _504
REMARK  213  A    between atoms: _503  and  _506
REMARK  214  A    between atoms: _506  and  _507
REMARK  215  A    between atoms: _510  and  _512
REMARK  216  A    between atoms: _512  and  _513
REMARK  217  A    between atoms: _512  and  _515
REMARK  218  A    between atoms: _515  and  _516
REMARK  219  A    between atoms: _519  and  _521
REMARK  220  A    between atoms: _521  and  _522
REMARK  221  A    between atoms: _521  and  _524
REMARK  222  A    between atoms: _524  and  _525
REMARK  223  A    between atoms: _528  and  _530
REMARK  224  A    between atoms: _530  and  _531
REMARK  225  A    between atoms: _530  and  _533
REMARK  226  A    between atoms: _533  and  _534
REMARK  227  A    between atoms: _534  and  _535
REMARK  228  A    between atoms: _535  and  _536
REMARK  229  A    between atoms: _536  and  _537
REMARK  230  A    between atoms: _541  and  _543
REMARK  231  A    between atoms: _543  and  _544
REMARK  232  A    between atoms: _543  and  _546
REMARK  233  A    between atoms: _546  and  _547
REMARK  234  A    between atoms: _550  and  _552
REMARK  235  A    between atoms: _552  and  _553
REMARK  236  A    between atoms: _552  and  _555
REMARK  237  A    between atoms: _555  and  _556
REMARK  238  A    between atoms: _556  and  _557
REMARK  239  A    between atoms: _560  and  _561
REMARK  240  A    between atoms: _566  and  _568
REMARK  241  A    between atoms: _568  and  _569
REMARK  242  A    between atoms: _568  and  _571
REMARK  243  A    between atoms: _571  and  _572
REMARK  244  A    between atoms: _575  and  _577
REMARK  245  A    between atoms: _577  and  _578
REMARK  246  A    between atoms: _577  and  _580
REMARK  247  A    between atoms: _580  and  _581
REMARK  248  A    between atoms: _581  and  _582
REMARK  249  A    between atoms: _582  and  _583
REMARK  250  A    between atoms: _592  and  _594
REMARK  251  A    between atoms: _594  and  _595
REMARK  252  A    between atoms: _594  and  _597
REMARK  253  A    between atoms: _597  and  _598
REMARK  254  A    between atoms: _598  and  _599
REMARK  255  A    between atoms: _601  and  _603
REMARK  256  A    between atoms: _603  and  _604
REMARK  257  A    between atoms: _603  and  _606
REMARK  258  A    between atoms: _606  and  _607
REMARK                            x       y       z     vdW  Elec       q    Type
REMARK                         _______ _______ _______ _____ _____    ______ ____
ROOT
ATOM      1  C   MET A   1      35.633  13.244  75.668  0.00  0.00    +0.238 C 
ATOM      2  O   MET A   1      36.763  13.636  75.998  0.00  0.00    -0.274 OA
ATOM      3  N   HIS A   2      35.420  12.504  74.586  0.00  0.00    -0.298 N 
ATOM      4  H   HIS A   2      34.458  12.168  74.380  0.00  0.00    +0.150 HD
ENDROOT
BRANCH   1   5
ATOM      5  CA  MET A   1      34.407  13.668  76.468  0.00  0.00    +0.146 C 
BRANCH   5   6
ATOM      6  N   MET A   1      33.318  14.072  75.563  0.00  0.00    -0.238 NA
ATOM      7  H   MET A   1      32.412  13.563  75.591  0.00  0.00    +0.142 HD
ENDBRANCH   5   6
BRANCH   5   8
ATOM      8  CB  MET A   1      33.953  12.570  77.409  0.00  0.00    +0.038 C 
BRANCH   8   9
ATOM      9  CG  MET A   1      32.895  12.957  78.403  0.00  0.00    +0.060 C 
BRANCH   9  10
ATOM     10  SD  MET A   1      33.433  14.163  79.643  0.00  0.00    -0.139 S 
ATOM     11  CE  MET A   1      34.553  13.159  80.584  0.00  0.00    +0.069 C 
ENDBRANCH   9  10
ENDBRANCH   8   9
ENDBRANCH   5   8
ENDBRANCH   1   5
BRANCH   3  12
ATOM     12  CA  HIS A   2      36.504  12.154  73.683  0.00  0.00    +0.143 C 
BRANCH  12  13
ATOM     13  C   HIS A   2      37.182  13.411  73.162  0.00  0.00    +0.227 C 
ATOM     14  O   HIS A   2      38.427  13.548  73.224  0.00  0.00    -0.286 OA
ENDBRANCH  12  13
BRANCH  12  15
ATOM     15  CB  HIS A   2      35.945  11.349  72.507  0.00  0.00    +0.075 C 
BRANCH  15  16
ATOM     16  CG  HIS A   2      36.975  11.027  71.474  0.00  0.00    +0.082 A 
ATOM     17  CD2 HIS A   2      37.657   9.889  71.223  0.00  0.00    +0.115 A 
ATOM     18  NE2 HIS A   2      38.501  10.060  70.150  0.00  0.00    -0.221 NA
ATOM     19  CE1 HIS A   2      38.291  11.293  69.737  0.00  0.00    +0.199 A 
ATOM     20  ND1 HIS A   2      37.397  11.896  70.514  0.00  0.00    -0.227 NA
ENDBRANCH  15  16
ENDBRANCH  12  15
ENDBRANCH   3  12
TORSDOF 9
REMARK  Name = ../refined-set-2016/1fcy/1fcy_pocket.pdb
REMARK  258 active torsions:
REMARK  status: ('A' for Active; 'I' for Inactive)
REMARK    1  A    between atoms: _1  and  _3
REMARK    2  A    between atoms: _3  and  _4
REMARK    3  A    between atoms: _3  and  _6
REMARK    4  A    between atoms: _6  and  _7
REMARK    5  A    between atoms: _10  and  _12
REMARK    6  A    between atoms: _12  and  _13
REMARK    7  A    between atoms: _12  and  _15
REMARK    8  A    between atoms: _15  and  _16
REMARK    9  A    between atoms: _23  and  _24
REMARK   10  A    between atoms: _29  and  _31
REMARK   11  A    between atoms: _31  and  _32
REMARK   12  A    between atoms: _31  and  _34
REMARK   13  A    between atoms: _34  and  _35
REMARK   14  A    between atoms: _38  and  _40
REMARK   15  A    between atoms: _40  and  _41
REMARK   16  A    between atoms: _40  and  _43
REMARK   17  A    between atoms: _43  and  _44
REMARK   18  A    between atoms: _54  and  _56
REMARK   19  A    between atoms: _56  and  _57
REMARK   20  A    between atoms: _56  and  _59
REMARK   21  A    between atoms: _59  and  _60
REMARK   22  A    between atoms: _60  and  _61
REMARK   23  A    between atoms: _61  and  _62
REMARK   24  A    between atoms: _62  and  _63
REMARK   25  A    between atoms: _67  and  _69
REMARK   26  A    between atoms: _69  and  _70
REMARK   27  A    between atoms: _69  and  _72
REMARK   28  A    between atoms: _72  and  _73
REMARK   29  A    between atoms: _79  and  _81
REMARK   30  A    between atoms: _81  and  _82
REMARK   31  A    between atoms: _81  and  _84
REMARK   32  A    between atoms: _84  and  _85
REMARK   33  A    between atoms: _87  and  _89
REMARK   34  A    between atoms: _89  and  _90
REMARK   35  A    between atoms: _89  and  _92
REMARK   36  A    between atoms: _92  and  _93
REMARK   37  A    between atoms: _93  and  _94
REMARK   38  A    between atoms: _97  and  _99
REMARK   39  A    between atoms: _99  and  _100
REMARK   40  A    between atoms: _99  and  _102
REMARK   41  A    between atoms: _102  and  _103
REMARK   42  A    between atoms: _106  and  _108
REMARK   43  A    between atoms: _108  and  _109
REMARK   44  A    between atoms: _112  and  _114
REMARK   45  A    between atoms: _114  and  _115
REMARK   46  A    between atoms: _114  and  _117
REMARK   47  A    between atoms: _117  and  _118
REMARK   48  A    between atoms: _121  and  _123
REMARK   49  A    between atoms: _123  and  _124
REMARK   50  A    between atoms: _123  and  _126
REMARK   51  A    between atoms: _127  and  _128
REMARK   52  A    between atoms: _128  and  _129
REMARK   53  A    between atoms: _129  and  _130
REMARK   54  A    between atoms: _134  and  _136
REMARK   55  A    between atoms: _136  and  _137
REMARK   56  A    between atoms: _136  and  _139
REMARK   57  A    between atoms: _141  and  _143
REMARK   58  A    between atoms: _143  and  _144
REMARK   59  A    between atoms: _143  and  _146
REMARK   60  A    between atoms: _146  and  _147
REMARK   61  A    between atoms: _150  and  _152
REMARK   62  A    between atoms: _152  and  _153
REMARK   63  A    between atoms: _152  and  _155
REMARK   64  A    between atoms: _155  and  _156
REMARK   65  A    between atoms: _156  and  _157
REMARK   66  A    between atoms: _157  and  _158
REMARK   67  A    between atoms: _158  and  _159
REMARK   68  A    between atoms: _163  and  _165
REMARK   69  A    between atoms: _165  and  _166
REMARK   70  A    between atoms: _165  and  _168
REMARK   71  A    between atoms: _168  and  _169
REMARK   72  A    between atoms: _172  and  _174
REMARK   73  A    between atoms: _174  and  _175
REMARK   74  A    between atoms: _174  and  _177
REMARK   75  A    between atoms: _179  and  _181
REMARK   76  A    between atoms: _181  and  _182
REMARK   77  A    between atoms: _181  and  _184
REMARK   78  A    between atoms: _184  and  _185
REMARK   79  A    between atoms: _188  and  _190
REMARK   80  A    between atoms: _190  and  _191
REMARK   81  A    between atoms: _190  and  _193
REMARK   82  A    between atoms: _193  and  _194
REMARK   83  A    between atoms: _197  and  _199
REMARK   84  A    between atoms: _199  and  _200
REMARK   85  A    between atoms: _199  and  _202
REMARK   86  A    between atoms: _202  and  _203
REMARK   87  A    between atoms: _206  and  _208
REMARK   88  A    between atoms: _208  and  _209
REMARK   89  A    between atoms: _208  and  _211
REMARK   90  A    between atoms: _211  and  _212
REMARK   91  A    between atoms: _215  and  _217
REMARK   92  A    between atoms: _217  and  _218
REMARK   93  A    between atoms: _217  and  _220
REMARK   94  A    between atoms: _220  and  _221
REMARK   95  A    between atoms: _221  and  _222
REMARK   96  A    between atoms: _224  and  _226
REMARK   97  A    between atoms: _226  and  _227
REMARK   98  A    between atoms: _226  and  _229
REMARK   99  A    between atoms: _229  and  _230
REMARK  100  A    between atoms: _233  and  _235
REMARK  101  A    between atoms: _235  and  _236
REMARK  102  A    between atoms: _235  and  _238
REMARK  103  A    between atoms: _238  and  _239
REMARK  104  A    between atoms: _239  and  _240
REMARK  105  A    between atoms: _240  and  _241
REMARK  106  A    between atoms: _250  and  _252
REMARK  107  A    between atoms: _252  and  _253
REMARK  108  A    between atoms: _252  and  _255
REMARK  109  A    between atoms: _255  and  _256
REMARK  110  A    between atoms: _259  and  _261
REMARK  111  A    between atoms: _261  and  _262
REMARK  112  A    between atoms: _261  and  _264
REMARK  113  A    between atoms: _266  and  _268
REMARK  114  A    between atoms: _268  and  _269
REMARK  115  A    between atoms: _268  and  _271
REMARK  116  A    between atoms: _271  and  _272
REMARK  117  A    between atoms: _275  and  _277
REMARK  118  A    between atoms: _277  and  _278
REMARK  119  A    between atoms: _277  and  _280
REMARK  120  A    between atoms: _280  and  _281
REMARK  121  A    between atoms: _281  and  _282
REMARK  122  A    between atoms: _282  and  _283
REMARK  123  A    between atoms: _292  and  _294
REMARK  124  A    between atoms: _294  and  _295
REMARK  125  A    between atoms: _294  and  _297
REMARK  126  A    between atoms: _297  and  _298
REMARK  127  A    between atoms: _298  and  _299
REMARK  128  A    between atoms: _301  and  _303
REMARK  129  A    between atoms: _303  and  _304
REMARK  130  A    between atoms: _303  and  _306
REMARK  131  A    between atoms: _306  and  _307
REMARK  132  A    between atoms: _310  and  _312
REMARK  133  A    between atoms: _312  and  _313
REMARK  134  A    between atoms: _312  and  _315
REMARK  135  A    between atoms: _315  and  _316
REMARK  136  A    between atoms: _322  and  _324
REMARK  137  A    between atoms: _324  and  _325
REMARK  138  A    between atoms: _324  and  _327
REMARK  139  A    between atoms: _327  and  _328
REMARK  140  A    between atoms: _330  and  _332
REMARK  141  A    between atoms: _332  and  _333
REMARK  142  A    between atoms: _332  and  _335
REMARK  143  A    between atoms: _335  and  _336
REMARK  144  A    between atoms: _339  and  _341
REMARK  145  A    between atoms: _341  and  _342
REMARK  146  A    between atoms: _344  and  _346
REMARK  147  A    between atoms: _346  and  _347
REMARK  148  A    between atoms: _346  and  _349
REMARK  149  A    between atoms: _349  and  _350
REMARK  150  A    between atoms: _353  and  _355
REMARK  151  A    between atoms: _355  and  _356
REMARK  152  A    between atoms: _355  and  _358
REMARK  153  A    between atoms: _358  and  _359
REMARK  154  A    between atoms: _359  and  _360
REMARK  155  A    between atoms: _362  and  _364
REMARK  156  A    between atoms: _364  and  _365
REMARK  157  A    between atoms: _364  and  _367
REMARK  158  A    between atoms: _367  and  _368
REMARK  159  A    between atoms: _373  and  _375
REMARK  160  A    between atoms: _375  and  _376
REMARK  161  A    between atoms: _379  and  _381
REMARK  162  A    between atoms: _381  and  _382
REMARK  163  A    between atoms: _384  and  _386
REMARK  164  A    between atoms: _386  and  _387
REMARK  165  A    between atoms: _386  and  _389
REMARK  166  A    between atoms: _389  and  _390
REMARK  167  A    between atoms: _396  and  _398
REMARK  168  A    between atoms: _398  and  _399
REMARK  169  A    between atoms: _401  and  _403
REMARK  170  A    between atoms: _403  and  _404
REMARK  171  A    between atoms: _403  and  _406
REMARK  172  A    between atoms: _406  and  _407
REMARK  173  A    between atoms: _410  and  _412
REMARK  174  A    between atoms: _412  and  _413
REMARK  175  A    between atoms: _412  and  _415
REMARK  176  A    between atoms: _415  and  _416
REMARK  177  A    between atoms: _419  and  _421
REMARK  178  A    between atoms: _421  and  _422
REMARK  179  A    between atoms: _421  and  _424
REMARK  180  A    between atoms: _427  and  _429
REMARK  181  A    between atoms: _429  and  _430
REMARK  182  A    between atoms: _429  and  _432
REMARK  183  A    between atoms: _432  and  _433
REMARK  184  A    between atoms: _436  and  _438
REMARK  185  A    between atoms: _438  and  _439
REMARK  186  A    between atoms: _438  and  _441
REMARK  187  A    between atoms: _441  and  _442
REMARK  188  A    between atoms: _444  and  _446
REMARK  189  A    between atoms: _446  and  _447
REMARK  190  A    between atoms: _446  and  _449
REMARK  191  A    between atoms: _449  and  _450
REMARK  192  A    between atoms: _450  and  _451
REMARK  193  A    between atoms: _451  and  _452
REMARK  194  A    between atoms: _452  and  _453
REMARK  195  A    between atoms: _457  and  _459
REMARK  196  A    between atoms: _459  and  _460
REMARK  197  A    between atoms: _462  and  _464
REMARK  198  A    between atoms: _464  and  _465
REMARK  199  A    between atoms: _468  and  _470
REMARK  200  A    between atoms: _470  and  _471
REMARK  201  A    between atoms: _470  and  _473
REMARK  202  A    between atoms: _474  and  _475
REMARK  203  A    between atoms: _478  and  _480
REMARK  204  A    between atoms: _480  and  _481
REMARK  205  A    between atoms: _480  and  _483
REMARK  206  A    between atoms: _483  and  _484
REMARK  207  A    between atoms: _484  and  _485
REMARK  208  A    between atoms: _485  and  _486
REMARK  209  A    between atoms: _495  and  _497
REMARK  210  A    between atoms: _497  and  _498
REMARK  211  A    between atoms: _501  and  _503
REMARK  212  A    between atoms: _503  and  _504
REMARK  213  A    between atoms: _503  and  _506
REMARK  214  A    between atoms: _506  and  _507
REMARK  215  A    between atoms: _510  and  _512
REMARK  216  A    between atoms: _512  and  _513
REMARK  217  A    between atoms: _512  and  _515
REMARK  218  A    between atoms: _515  and  _516
REMARK  219  A    between atoms: _519  and  _521
REMARK  220  A    between atoms: _521  and  _522
REMARK  221  A    between atoms: _521  and  _524
REMARK  222  A    between atoms: _524  and  _525
REMARK  223  A    between atoms: _528  and  _530
REMARK  224  A    between atoms: _530  and  _531
REMARK  225  A    between atoms: _530  and  _533
REMARK  226  A    between atoms: _533  and  _534
REMARK  227  A    between atoms: _534  and  _535
REMARK  228  A    between atoms: _535  and  _536
REMARK  229  A    between atoms: _536  and  _537
REMARK  230  A    between atoms: _541  and  _543
REMARK  231  A    between atoms: _543  and  _544
REMARK  232  A    between atoms: _543  and  _546
REMARK  233  A    between atoms: _546  and  _547
REMARK  234  A    between atoms: _550  and  _552
REMARK  235  A    between atoms: _552  and  _553
REMARK  236  A    between atoms: _552  and  _555
REMARK  237  A    between atoms: _555  and  _556
REMARK  238  A    between atoms: _556  and  _557
REMARK  239  A    between atoms: _560  and  _561
REMARK  240  A    between atoms: _566  and  _568
REMARK  241  A    between atoms: _568  and  _569
REMARK  242  A    between atoms: _568  and  _571
REMARK  243  A    between atoms: _571  and  _572
REMARK  244  A    between atoms: _575  and  _577
REMARK  245  A    between atoms: _577  and  _578
REMARK  246  A    between atoms: _577  and  _580
REMARK  247  A    between atoms: _580  and  _581
REMARK  248  A    between atoms: _581  and  _582
REMARK  249  A    between atoms: _582  and  _583
REMARK  250  A    between atoms: _592  and  _594
REMARK  251  A    between atoms: _594  and  _595
REMARK  252  A    between atoms: _594  and  _597
REMARK  253  A    between atoms: _597  and  _598
REMARK  254  A    between atoms: _598  and  _599
REMARK  255  A    between atoms: _601  and  _603
REMARK  256  A    between atoms: _603  and  _604
REMARK  257  A    between atoms: _603  and  _606
REMARK  258  A    between atoms: _606  and  _607
REMARK                            x       y       z     vdW  Elec       q    Type
REMARK                         _______ _______ _______ _____ _____    ______ ____
ROOT
ATOM      1  CA  PHE A   3      40.172  11.721  76.540  0.00  0.00    +0.153 C 
ENDROOT
BRANCH   1   3
ATOM      2  C   GLY A   2      41.032  13.872  75.920  0.00  0.00    +0.243 C 
ATOM      3  N   PHE A   3      39.969  13.134  76.248  0.00  0.00    -0.297 N 
ATOM      4  H   PHE A   3      39.020  13.557  76.294  0.00  0.00    +0.150 HD
ATOM      5  O   GLY A   2      42.154  13.387  75.863  0.00  0.00    -0.273 OA
BRANCH   2   6
ATOM      6  CA  GLY A   2      40.893  15.346  75.603  0.00  0.00    +0.176 C 
BRANCH   6   9
ATOM      7  C   ALA A   1      39.108  16.998  75.653  0.00  0.00    +0.238 C 
ATOM      8  O   ALA A   1      39.750  17.818  76.284  0.00  0.00    -0.274 OA
ATOM      9  N   GLY A   2      39.544  15.781  75.351  0.00  0.00    -0.296 N 
ATOM     10  H   GLY A   2      38.881  15.111  74.912  0.00  0.00    +0.150 HD
BRANCH   7  11
ATOM     11  CA  ALA A   1      37.687  17.381  75.214  0.00  0.00    +0.145 C 
ATOM     12  CB  ALA A   1      36.796  17.390  76.455  0.00  0.00    +0.028 C 
BRANCH  11  13
ATOM     13  N   ALA A   1      37.165  16.467  74.225  0.00  0.00    -0.238 NA
ATOM     14  H   ALA A   1      36.529  15.706  74.537  0.00  0.00    +0.142 HD
ENDBRANCH  11  13
ENDBRANCH   7  11
ENDBRANCH   6   9
ENDBRANCH   2   6
ENDBRANCH   1   3
BRANCH   1  15
ATOM     15  C   PHE A   3      40.672  10.927  75.329  0.00  0.00    +0.241 C 
ATOM     16  O   PHE A   3      41.437   9.990  75.497  0.00  0.00    -0.273 OA
ATOM     17  N   GLY A   4      40.236  11.327  74.114  0.00  0.00    -0.296 N 
ATOM     18  H   GLY A   4      39.533  12.089  74.028  0.00  0.00    +0.150 HD
BRANCH  17  19
ATOM     19  CA  GLY A   4      40.762  10.679  72.943  0.00  0.00    +0.163 C 
BRANCH  19  20
ATOM     20  C   GLY A   4      40.581   9.175  72.984  0.00  0.00    +0.229 C 
ATOM     21  O   GLY A   4      39.539   8.661  73.366  0.00  0.00    -0.286 OA
ENDBRANCH  19  20
ENDBRANCH  17  19
ENDBRANCH   1  15
BRANCH   1  22
ATOM     22  CB  PHE A   3      38.901  11.078  77.075  0.00  0.00    +0.055 C 
BRANCH  22  23
ATOM     23  CG  PHE A   3      38.754  11.251  78.590  0.00  0.00    -0.020 A 
ATOM     24  CD2 PHE A   3      39.341  10.331  79.449  0.00  0.00    -0.004 A 
ATOM     25  CE2 PHE A   3      39.252  10.452  80.815  0.00  0.00    -0.000 A 
ATOM     26  CZ  PHE A   3      38.565  11.546  81.323  0.00  0.00    -0.000 A 
ATOM     27  CE1 PHE A   3      37.955  12.415  80.494  0.00  0.00    -0.000 A 
ATOM     28  CD1 PHE A   3      38.080  12.295  79.129  0.00  0.00    -0.004 A 
ENDBRANCH  22  23
ENDBRANCH   1  22
TORSDOF 10
REMARK  Name = ../refined-set-2016/1fcy/1fcy_pocket.pdb
REMARK  258 active torsions:
REMARK  status: ('A' for Active; 'I' for Inactive)
REMARK    1  A    between atoms: _1  and  _3
REMARK    2  A    between atoms: _3  and  _4
REMARK    3  A    between atoms: _3  and  _6
REMARK    4  A    between atoms: _6  and  _7
REMARK    5  A    between atoms: _10  and  _12
REMARK    6  A    between atoms: _12  and  _13
REMARK    7  A    between atoms: _12  and  _15
REMARK    8  A    between atoms: _15  and  _16
REMARK    9  A    between atoms: _23  and  _24
REMARK   10  A    between atoms: _29  and  _31
REMARK   11  A    between atoms: _31  and  _32
REMARK   12  A    between atoms: _31  and  _34
REMARK   13  A    between atoms: _34  and  _35
REMARK   14  A    between atoms: _38  and  _40
REMARK   15  A    between atoms: _40  and  _41
REMARK   16  A    between atoms: _40  and  _43
REMARK   17  A    between atoms: _43  and  _44
REMARK   18  A    between atoms: _54  and  _56
REMARK   19  A    between atoms: _56  and  _57
REMARK   20  A    between atoms: _56  and  _59
REMARK   21  A    between atoms: _59  and  _60
REMARK   22  A    between atoms: _60  and  _61
REMARK   23  A    between atoms: _61  and  _62
REMARK   24  A    between atoms: _62  and  _63
REMARK   25  A    between atoms: _67  and  _69
REMARK   26  A    between atoms: _69  and  _70
REMARK   27  A    between atoms: _69  and  _72
REMARK   28  A    between atoms: _72  and  _73
REMARK   29  A    between atoms: _79  and  _81
REMARK   30  A    between atoms: _81  and  _82
REMARK   31  A    between atoms: _81  and  _84
REMARK   32  A    between atoms: _84  and  _85
REMARK   33  A    between atoms: _87  and  _89
REMARK   34  A    between atoms: _89  and  _90
REMARK   35  A    between atoms: _89  and  _92
REMARK   36  A    between atoms: _92  and  _93
REMARK   37  A    between atoms: _93  and  _94
REMARK   38  A    between atoms: _97  and  _99
REMARK   39  A    between atoms: _99  and  _100
REMARK   40  A    between atoms: _99  and  _102
REMARK   41  A    between atoms: _102  and  _103
REMARK   42  A    between atoms: _106  and  _108
REMARK   43  A    between atoms: _108  and  _109
REMARK   44  A    between atoms: _112  and  _114
REMARK   45  A    between atoms: _114  and  _115
REMARK   46  A    between atoms: _114  and  _117
REMARK   47  A    between atoms: _117  and  _118
REMARK   48  A    between atoms: _121  and  _123
REMARK   49  A    between atoms: _123  and  _124
REMARK   50  A    between atoms: _123  and  _126
REMARK   51  A    between atoms: _127  and  _128
REMARK   52  A    between atoms: _128  and  _129
REMARK   53  A    between atoms: _129  and  _130
REMARK   54  A    between atoms: _134  and  _136
REMARK   55  A    between atoms: _136  and  _137
REMARK   56  A    between atoms: _136  and  _139
REMARK   57  A    between atoms: _141  and  _143
REMARK   58  A    between atoms: _143  and  _144
REMARK   59  A    between atoms: _143  and  _146
REMARK   60  A    between atoms: _146  and  _147
REMARK   61  A    between atoms: _150  and  _152
REMARK   62  A    between atoms: _152  and  _153
REMARK   63  A    between atoms: _152  and  _155
REMARK   64  A    between atoms: _155  and  _156
REMARK   65  A    between atoms: _156  and  _157
REMARK   66  A    between atoms: _157  and  _158
REMARK   67  A    between atoms: _158  and  _159
REMARK   68  A    between atoms: _163  and  _165
REMARK   69  A    between atoms: _165  and  _166
REMARK   70  A    between atoms: _165  and  _168
REMARK   71  A    between atoms: _168  and  _169
REMARK   72  A    between atoms: _172  and  _174
REMARK   73  A    between atoms: _174  and  _175
REMARK   74  A    between atoms: _174  and  _177
REMARK   75  A    between atoms: _179  and  _181
REMARK   76  A    between atoms: _181  and  _182
REMARK   77  A    between atoms: _181  and  _184
REMARK   78  A    between atoms: _184  and  _185
REMARK   79  A    between atoms: _188  and  _190
REMARK   80  A    between atoms: _190  and  _191
REMARK   81  A    between atoms: _190  and  _193
REMARK   82  A    between atoms: _193  and  _194
REMARK   83  A    between atoms: _197  and  _199
REMARK   84  A    between atoms: _199  and  _200
REMARK   85  A    between atoms: _199  and  _202
REMARK   86  A    between atoms: _202  and  _203
REMARK   87  A    between atoms: _206  and  _208
REMARK   88  A    between atoms: _208  and  _209
REMARK   89  A    between atoms: _208  and  _211
REMARK   90  A    between atoms: _211  and  _212
REMARK   91  A    between atoms: _215  and  _217
REMARK   92  A    between atoms: _217  and  _218
REMARK   93  A    between atoms: _217  and  _220
REMARK   94  A    between atoms: _220  and  _221
REMARK   95  A    between atoms: _221  and  _222
REMARK   96  A    between atoms: _224  and  _226
REMARK   97  A    between atoms: _226  and  _227
REMARK   98  A    between atoms: _226  and  _229
REMARK   99  A    between atoms: _229  and  _230
REMARK  100  A    between atoms: _233  and  _235
REMARK  101  A    between atoms: _235  and  _236
REMARK  102  A    between atoms: _235  and  _238
REMARK  103  A    between atoms: _238  and  _239
REMARK  104  A    between atoms: _239  and  _240
REMARK  105  A    between atoms: _240  and  _241
REMARK  106  A    between atoms: _250  and  _252
REMARK  107  A    between atoms: _252  and  _253
REMARK  108  A    between atoms: _252  and  _255
REMARK  109  A    between atoms: _255  and  _256
REMARK  110  A    between atoms: _259  and  _261
REMARK  111  A    between atoms: _261  and  _262
REMARK  112  A    between atoms: _261  and  _264
REMARK  113  A    between atoms: _266  and  _268
REMARK  114  A    between atoms: _268  and  _269
REMARK  115  A    between atoms: _268  and  _271
REMARK  116  A    between atoms: _271  and  _272
REMARK  117  A    between atoms: _275  and  _277
REMARK  118  A    between atoms: _277  and  _278
REMARK  119  A    between atoms: _277  and  _280
REMARK  120  A    between atoms: _280  and  _281
REMARK  121  A    between atoms: _281  and  _282
REMARK  122  A    between atoms: _282  and  _283
REMARK  123  A    between atoms: _292  and  _294
REMARK  124  A    between atoms: _294  and  _295
REMARK  125  A    between atoms: _294  and  _297
REMARK  126  A    between atoms: _297  and  _298
REMARK  127  A    between atoms: _298  and  _299
REMARK  128  A    between atoms: _301  and  _303
REMARK  129  A    between atoms: _303  and  _304
REMARK  130  A    between atoms: _303  and  _306
REMARK  131  A    between atoms: _306  and  _307
REMARK  132  A    between atoms: _310  and  _312
REMARK  133  A    between atoms: _312  and  _313
REMARK  134  A    between atoms: _312  and  _315
REMARK  135  A    between atoms: _315  and  _316
REMARK  136  A    between atoms: _322  and  _324
REMARK  137  A    between atoms: _324  and  _325
REMARK  138  A    between atoms: _324  and  _327
REMARK  139  A    between atoms: _327  and  _328
REMARK  140  A    between atoms: _330  and  _332
REMARK  141  A    between atoms: _332  and  _333
REMARK  142  A    between atoms: _332  and  _335
REMARK  143  A    between atoms: _335  and  _336
REMARK  144  A    between atoms: _339  and  _341
REMARK  145  A    between atoms: _341  and  _342
REMARK  146  A    between atoms: _344  and  _346
REMARK  147  A    between atoms: _346  and  _347
REMARK  148  A    between atoms: _346  and  _349
REMARK  149  A    between atoms: _349  and  _350
REMARK  150  A    between atoms: _353  and  _355
REMARK  151  A    between atoms: _355  and  _356
REMARK  152  A    between atoms: _355  and  _358
REMARK  153  A    between atoms: _358  and  _359
REMARK  154  A    between atoms: _359  and  _360
REMARK  155  A    between atoms: _362  and  _364
REMARK  156  A    between atoms: _364  and  _365
REMARK  157  A    between atoms: _364  and  _367
REMARK  158  A    between atoms: _367  and  _368
REMARK  159  A    between atoms: _373  and  _375
REMARK  160  A    between atoms: _375  and  _376
REMARK  161  A    between atoms: _379  and  _381
REMARK  162  A    between atoms: _381  and  _382
REMARK  163  A    between atoms: _384  and  _386
REMARK  164  A    between atoms: _386  and  _387
REMARK  165  A    between atoms: _386  and  _389
REMARK  166  A    between atoms: _389  and  _390
REMARK  167  A    between atoms: _396  and  _398
REMARK  168  A    between atoms: _398  and  _399
REMARK  169  A    between atoms: _401  and  _403
REMARK  170  A    between atoms: _403  and  _404
REMARK  171  A    between atoms: _403  and  _406
REMARK  172  A    between atoms: _406  and  _407
REMARK  173  A    between atoms: _410  and  _412
REMARK  174  A    between atoms: _412  and  _413
REMARK  175  A    between atoms: _412  and  _415
REMARK  176  A    between atoms: _415  and  _416
REMARK  177  A    between atoms: _419  and  _421
REMARK  178  A    between atoms: _421  and  _422
REMARK  179  A    between atoms: _421  and  _424
REMARK  180  A    between atoms: _427  and  _429
REMARK  181  A    between atoms: _429  and  _430
REMARK  182  A    between atoms: _429  and  _432
REMARK  183  A    between atoms: _432  and  _433
REMARK  184  A    between atoms: _436  and  _438
REMARK  185  A    between atoms: _438  and  _439
REMARK  186  A    between atoms: _438  and  _441
REMARK  187  A    between atoms: _441  and  _442
REMARK  188  A    between atoms: _444  and  _446
REMARK  189  A    between atoms: _446  and  _447
REMARK  190  A    between atoms: _446  and  _449
REMARK  191  A    between atoms: _449  and  _450
REMARK  192  A    between atoms: _450  and  _451
REMARK  193  A    between atoms: _451  and  _452
REMARK  194  A    between atoms: _452  and  _453
REMARK  195  A    between atoms: _457  and  _459
REMARK  196  A    between atoms: _459  and  _460
REMARK  197  A    between atoms: _462  and  _464
REMARK  198  A    between atoms: _464  and  _465
REMARK  199  A    between atoms: _468  and  _470
REMARK  200  A    between atoms: _470  and  _471
REMARK  201  A    between atoms: _470  and  _473
REMARK  202  A    between atoms: _474  and  _475
REMARK  203  A    between atoms: _478  and  _480
REMARK  204  A    between atoms: _480  and  _481
REMARK  205  A    between atoms: _480  and  _483
REMARK  206  A    between atoms: _483  and  _484
REMARK  207  A    between atoms: _484  and  _485
REMARK  208  A    between atoms: _485  and  _486
REMARK  209  A    between atoms: _495  and  _497
REMARK  210  A    between atoms: _497  and  _498
REMARK  211  A    between atoms: _501  and  _503
REMARK  212  A    between atoms: _503  and  _504
REMARK  213  A    between atoms: _503  and  _506
REMARK  214  A    between atoms: _506  and  _507
REMARK  215  A    between atoms: _510  and  _512
REMARK  216  A    between atoms: _512  and  _513
REMARK  217  A    between atoms: _512  and  _515
REMARK  218  A    between atoms: _515  and  _516
REMARK  219  A    between atoms: _519  and  _521
REMARK  220  A    between atoms: _521  and  _522
REMARK  221  A    between atoms: _521  and  _524
REMARK  222  A    between atoms: _524  and  _525
REMARK  223  A    between atoms: _528  and  _530
REMARK  224  A    between atoms: _530  and  _531
REMARK  225  A    between atoms: _530  and  _533
REMARK  226  A    between atoms: _533  and  _534
REMARK  227  A    between atoms: _534  and  _535
REMARK  228  A    between atoms: _535  and  _536
REMARK  229  A    between atoms: _536  and  _537
REMARK  230  A    between atoms: _541  and  _543
REMARK  231  A    between atoms: _543  and  _544
REMARK  232  A    between atoms: _543  and  _546
REMARK  233  A    between atoms: _546  and  _547
REMARK  234  A    between atoms: _550  and  _552
REMARK  235  A    between atoms: _552  and  _553
REMARK  236  A    between atoms: _552  and  _555
REMARK  237  A    between atoms: _555  and  _556
REMARK  238  A    between atoms: _556  and  _557
REMARK  239  A    between atoms: _560  and  _561
REMARK  240  A    between atoms: _566  and  _568
REMARK  241  A    between atoms: _568  and  _569
REMARK  242  A    between atoms: _568  and  _571
REMARK  243  A    between atoms: _571  and  _572
REMARK  244  A    between atoms: _575  and  _577
REMARK  245  A    between atoms: _577  and  _578
REMARK  246  A    between atoms: _577  and  _580
REMARK  247  A    between atoms: _580  and  _581
REMARK  248  A    between atoms: _581  and  _582
REMARK  249  A    between atoms: _582  and  _583
REMARK  250  A    between atoms: _592  and  _594
REMARK  251  A    between atoms: _594  and  _595
REMARK  252  A    between atoms: _594  and  _597
REMARK  253  A    between atoms: _597  and  _598
REMARK  254  A    between atoms: _598  and  _599
REMARK  255  A    between atoms: _601  and  _603
REMARK  256  A    between atoms: _603  and  _604
REMARK  257  A    between atoms: _603  and  _606
REMARK  258  A    between atoms: _606  and  _607
REMARK                            x       y       z     vdW  Elec       q    Type
REMARK                         _______ _______ _______ _____ _____    ______ ____
ROOT
ATOM      1  C   LEU A   1      39.593   6.535  76.728  0.00  0.00    +0.238 C 
ATOM      2  O   LEU A   1      39.122   5.979  77.736  0.00  0.00    -0.274 OA
ATOM      3  N   THR A   2      38.811   7.223  75.913  0.00  0.00    -0.296 N 
ATOM      4  H   THR A   2      39.199   7.585  75.019  0.00  0.00    +0.150 HD
ENDROOT
BRANCH   1   5
ATOM      5  CA  LEU A   1      41.065   6.444  76.375  0.00  0.00    +0.145 C 
BRANCH   5   6
ATOM      6  N   LEU A   1      41.292   6.997  75.031  0.00  0.00    -0.238 NA
ATOM      7  H   LEU A   1      41.493   8.015  74.961  0.00  0.00    +0.142 HD
ENDBRANCH   5   6
BRANCH   5   8
ATOM      8  CB  LEU A   1      41.951   7.202  77.342  0.00  0.00    +0.026 C 
BRANCH   8   9
ATOM      9  CG  LEU A   1      41.912   6.833  78.813  0.00  0.00    +0.002 C 
ATOM     10  CD2 LEU A   1      42.872   7.711  79.596  0.00  0.00    +0.000 C 
ATOM     11  CD1 LEU A   1      42.265   5.380  79.056  0.00  0.00    +0.000 C 
ENDBRANCH   8   9
ENDBRANCH   5   8
ENDBRANCH   1   5
BRANCH   3  12
ATOM     12  CA  THR A   2      37.424   7.482  76.242  0.00  0.00    +0.164 C 
BRANCH  12  13
ATOM     13  C   THR A   2      36.613   6.263  76.591  0.00  0.00    +0.229 C 
ATOM     14  O   THR A   2      35.943   6.220  77.632  0.00  0.00    -0.286 OA
ENDBRANCH  12  13
BRANCH  12  15
ATOM     15  CB  THR A   2      36.723   8.189  75.048  0.00  0.00    +0.136 C 
ATOM     16  CG2 THR A   2      35.291   8.538  75.382  0.00  0.00    +0.034 C 
BRANCH  15  17
ATOM     17  OG1 THR A   2      37.381   9.417  74.753  0.00  0.00    -0.382 OA
ATOM     18  HG1 THR A   2      38.325   9.236  74.516  0.00  0.00    +0.210 HD
ENDBRANCH  15  17
ENDBRANCH  12  15
ENDBRANCH   3  12
TORSDOF 8
REMARK  Name = ../refined-set-2016/1fcy/1fcy_pocket.pdb
REMARK  258 active torsions:
REMARK  status: ('A' for Active; 'I' for Inactive)
REMARK    1  A    between atoms: _1  and  _3
REMARK    2  A    between atoms: _3  and  _4
REMARK    3  A    between atoms: _3  and  _6
REMARK    4  A    between atoms: _6  and  _7
REMARK    5  A    between atoms: _10  and  _12
REMARK    6  A    between atoms: _12  and  _13
REMARK    7  A    between atoms: _12  and  _15
REMARK    8  A    between atoms: _15  and  _16
REMARK    9  A    between atoms: _23  and  _24
REMARK   10  A    between atoms: _29  and  _31
REMARK   11  A    between atoms: _31  and  _32
REMARK   12  A    between atoms: _31  and  _34
REMARK   13  A    between atoms: _34  and  _35
REMARK   14  A    between atoms: _38  and  _40
REMARK   15  A    between atoms: _40  and  _41
REMARK   16  A    between atoms: _40  and  _43
REMARK   17  A    between atoms: _43  and  _44
REMARK   18  A    between atoms: _54  and  _56
REMARK   19  A    between atoms: _56  and  _57
REMARK   20  A    between atoms: _56  and  _59
REMARK   21  A    between atoms: _59  and  _60
REMARK   22  A    between atoms: _60  and  _61
REMARK   23  A    between atoms: _61  and  _62
REMARK   24  A    between atoms: _62  and  _63
REMARK   25  A    between atoms: _67  and  _69
REMARK   26  A    between atoms: _69  and  _70
REMARK   27  A    between atoms: _69  and  _72
REMARK   28  A    between atoms: _72  and  _73
REMARK   29  A    between atoms: _79  and  _81
REMARK   30  A    between atoms: _81  and  _82
REMARK   31  A    between atoms: _81  and  _84
REMARK   32  A    between atoms: _84  and  _85
REMARK   33  A    between atoms: _87  and  _89
REMARK   34  A    between atoms: _89  and  _90
REMARK   35  A    between atoms: _89  and  _92
REMARK   36  A    between atoms: _92  and  _93
REMARK   37  A    between atoms: _93  and  _94
REMARK   38  A    between atoms: _97  and  _99
REMARK   39  A    between atoms: _99  and  _100
REMARK   40  A    between atoms: _99  and  _102
REMARK   41  A    between atoms: _102  and  _103
REMARK   42  A    between atoms: _106  and  _108
REMARK   43  A    between atoms: _108  and  _109
REMARK   44  A    between atoms: _112  and  _114
REMARK   45  A    between atoms: _114  and  _115
REMARK   46  A    between atoms: _114  and  _117
REMARK   47  A    between atoms: _117  and  _118
REMARK   48  A    between atoms: _121  and  _123
REMARK   49  A    between atoms: _123  and  _124
REMARK   50  A    between atoms: _123  and  _126
REMARK   51  A    between atoms: _127  and  _128
REMARK   52  A    between atoms: _128  and  _129
REMARK   53  A    between atoms: _129  and  _130
REMARK   54  A    between atoms: _134  and  _136
REMARK   55  A    between atoms: _136  and  _137
REMARK   56  A    between atoms: _136  and  _139
REMARK   57  A    between atoms: _141  and  _143
REMARK   58  A    between atoms: _143  and  _144
REMARK   59  A    between atoms: _143  and  _146
REMARK   60  A    between atoms: _146  and  _147
REMARK   61  A    between atoms: _150  and  _152
REMARK   62  A    between atoms: _152  and  _153
REMARK   63  A    between atoms: _152  and  _155
REMARK   64  A    between atoms: _155  and  _156
REMARK   65  A    between atoms: _156  and  _157
REMARK   66  A    between atoms: _157  and  _158
REMARK   67  A    between atoms: _158  and  _159
REMARK   68  A    between atoms: _163  and  _165
REMARK   69  A    between atoms: _165  and  _166
REMARK   70  A    between atoms: _165  and  _168
REMARK   71  A    between atoms: _168  and  _169
REMARK   72  A    between atoms: _172  and  _174
REMARK   73  A    between atoms: _174  and  _175
REMARK   74  A    between atoms: _174  and  _177
REMARK   75  A    between atoms: _179  and  _181
REMARK   76  A    between atoms: _181  and  _182
REMARK   77  A    between atoms: _181  and  _184
REMARK   78  A    between atoms: _184  and  _185
REMARK   79  A    between atoms: _188  and  _190
REMARK   80  A    between atoms: _190  and  _191
REMARK   81  A    between atoms: _190  and  _193
REMARK   82  A    between atoms: _193  and  _194
REMARK   83  A    between atoms: _197  and  _199
REMARK   84  A    between atoms: _199  and  _200
REMARK   85  A    between atoms: _199  and  _202
REMARK   86  A    between atoms: _202  and  _203
REMARK   87  A    between atoms: _206  and  _208
REMARK   88  A    between atoms: _208  and  _209
REMARK   89  A    between atoms: _208  and  _211
REMARK   90  A    between atoms: _211  and  _212
REMARK   91  A    between atoms: _215  and  _217
REMARK   92  A    between atoms: _217  and  _218
REMARK   93  A    between atoms: _217  and  _220
REMARK   94  A    between atoms: _220  and  _221
REMARK   95  A    between atoms: _221  and  _222
REMARK   96  A    between atoms: _224  and  _226
REMARK   97  A    between atoms: _226  and  _227
REMARK   98  A    between atoms: _226  and  _229
REMARK   99  A    between atoms: _229  and  _230
REMARK  100  A    between atoms: _233  and  _235
REMARK  101  A    between atoms: _235  and  _236
REMARK  102  A    between atoms: _235  and  _238
REMARK  103  A    between atoms: _238  and  _239
REMARK  104  A    between atoms: _239  and  _240
REMARK  105  A    between atoms: _240  and  _241
REMARK  106  A    between atoms: _250  and  _252
REMARK  107  A    between atoms: _252  and  _253
REMARK  108  A    between atoms: _252  and  _255
REMARK  109  A    between atoms: _255  and  _256
REMARK  110  A    between atoms: _259  and  _261
REMARK  111  A    between atoms: _261  and  _262
REMARK  112  A    between atoms: _261  and  _264
REMARK  113  A    between atoms: _266  and  _268
REMARK  114  A    between atoms: _268  and  _269
REMARK  115  A    between atoms: _268  and  _271
REMARK  116  A    between atoms: _271  and  _272
REMARK  117  A    between atoms: _275  and  _277
REMARK  118  A    between atoms: _277  and  _278
REMARK  119  A    between atoms: _277  and  _280
REMARK  120  A    between atoms: _280  and  _281
REMARK  121  A    between atoms: _281  and  _282
REMARK  122  A    between atoms: _282  and  _283
REMARK  123  A    between atoms: _292  and  _294
REMARK  124  A    between atoms: _294  and  _295
REMARK  125  A    between atoms: _294  and  _297
REMARK  126  A    between atoms: _297  and  _298
REMARK  127  A    between atoms: _298  and  _299
REMARK  128  A    between atoms: _301  and  _303
REMARK  129  A    between atoms: _303  and  _304
REMARK  130  A    between atoms: _303  and  _306
REMARK  131  A    between atoms: _306  and  _307
REMARK  132  A    between atoms: _310  and  _312
REMARK  133  A    between atoms: _312  and  _313
REMARK  134  A    between atoms: _312  and  _315
REMARK  135  A    between atoms: _315  and  _316
REMARK  136  A    between atoms: _322  and  _324
REMARK  137  A    between atoms: _324  and  _325
REMARK  138  A    between atoms: _324  and  _327
REMARK  139  A    between atoms: _327  and  _328
REMARK  140  A    between atoms: _330  and  _332
REMARK  141  A    between atoms: _332  and  _333
REMARK  142  A    between atoms: _332  and  _335
REMARK  143  A    between atoms: _335  and  _336
REMARK  144  A    between atoms: _339  and  _341
REMARK  145  A    between atoms: _341  and  _342
REMARK  146  A    between atoms: _344  and  _346
REMARK  147  A    between atoms: _346  and  _347
REMARK  148  A    between atoms: _346  and  _349
REMARK  149  A    between atoms: _349  and  _350
REMARK  150  A    between atoms: _353  and  _355
REMARK  151  A    between atoms: _355  and  _356
REMARK  152  A    between atoms: _355  and  _358
REMARK  153  A    between atoms: _358  and  _359
REMARK  154  A    between atoms: _359  and  _360
REMARK  155  A    between atoms: _362  and  _364
REMARK  156  A    between atoms: _364  and  _365
REMARK  157  A    between atoms: _364  and  _367
REMARK  158  A    between atoms: _367  and  _368
REMARK  159  A    between atoms: _373  and  _375
REMARK  160  A    between atoms: _375  and  _376
REMARK  161  A    between atoms: _379  and  _381
REMARK  162  A    between atoms: _381  and  _382
REMARK  163  A    between atoms: _384  and  _386
REMARK  164  A    between atoms: _386  and  _387
REMARK  165  A    between atoms: _386  and  _389
REMARK  166  A    between atoms: _389  and  _390
REMARK  167  A    between atoms: _396  and  _398
REMARK  168  A    between atoms: _398  and  _399
REMARK  169  A    between atoms: _401  and  _403
REMARK  170  A    between atoms: _403  and  _404
REMARK  171  A    between atoms: _403  and  _406
REMARK  172  A    between atoms: _406  and  _407
REMARK  173  A    between atoms: _410  and  _412
REMARK  174  A    between atoms: _412  and  _413
REMARK  175  A    between atoms: _412  and  _415
REMARK  176  A    between atoms: _415  and  _416
REMARK  177  A    between atoms: _419  and  _421
REMARK  178  A    between atoms: _421  and  _422
REMARK  179  A    between atoms: _421  and  _424
REMARK  180  A    between atoms: _427  and  _429
REMARK  181  A    between atoms: _429  and  _430
REMARK  182  A    between atoms: _429  and  _432
REMARK  183  A    between atoms: _432  and  _433
REMARK  184  A    between atoms: _436  and  _438
REMARK  185  A    between atoms: _438  and  _439
REMARK  186  A    between atoms: _438  and  _441
REMARK  187  A    between atoms: _441  and  _442
REMARK  188  A    between atoms: _444  and  _446
REMARK  189  A    between atoms: _446  and  _447
REMARK  190  A    between atoms: _446  and  _449
REMARK  191  A    between atoms: _449  and  _450
REMARK  192  A    between atoms: _450  and  _451
REMARK  193  A    between atoms: _451  and  _452
REMARK  194  A    between atoms: _452  and  _453
REMARK  195  A    between atoms: _457  and  _459
REMARK  196  A    between atoms: _459  and  _460
REMARK  197  A    between atoms: _462  and  _464
REMARK  198  A    between atoms: _464  and  _465
REMARK  199  A    between atoms: _468  and  _470
REMARK  200  A    between atoms: _470  and  _471
REMARK  201  A    between atoms: _470  and  _473
REMARK  202  A    between atoms: _474  and  _475
REMARK  203  A    between atoms: _478  and  _480
REMARK  204  A    between atoms: _480  and  _481
REMARK  205  A    between atoms: _480  and  _483
REMARK  206  A    between atoms: _483  and  _484
REMARK  207  A    between atoms: _484  and  _485
REMARK  208  A    between atoms: _485  and  _486
REMARK  209  A    between atoms: _495  and  _497
REMARK  210  A    between atoms: _497  and  _498
REMARK  211  A    between atoms: _501  and  _503
REMARK  212  A    between atoms: _503  and  _504
REMARK  213  A    between atoms: _503  and  _506
REMARK  214  A    between atoms: _506  and  _507
REMARK  215  A    between atoms: _510  and  _512
REMARK  216  A    between atoms: _512  and  _513
REMARK  217  A    between atoms: _512  and  _515
REMARK  218  A    between atoms: _515  and  _516
REMARK  219  A    between atoms: _519  and  _521
REMARK  220  A    between atoms: _521  and  _522
REMARK  221  A    between atoms: _521  and  _524
REMARK  222  A    between atoms: _524  and  _525
REMARK  223  A    between atoms: _528  and  _530
REMARK  224  A    between atoms: _530  and  _531
REMARK  225  A    between atoms: _530  and  _533
REMARK  226  A    between atoms: _533  and  _534
REMARK  227  A    between atoms: _534  and  _535
REMARK  228  A    between atoms: _535  and  _536
REMARK  229  A    between atoms: _536  and  _537
REMARK  230  A    between atoms: _541  and  _543
REMARK  231  A    between atoms: _543  and  _544
REMARK  232  A    between atoms: _543  and  _546
REMARK  233  A    between atoms: _546  and  _547
REMARK  234  A    between atoms: _550  and  _552
REMARK  235  A    between atoms: _552  and  _553
REMARK  236  A    between atoms: _552  and  _555
REMARK  237  A    between atoms: _555  and  _556
REMARK  238  A    between atoms: _556  and  _557
REMARK  239  A    between atoms: _560  and  _561
REMARK  240  A    between atoms: _566  and  _568
REMARK  241  A    between atoms: _568  and  _569
REMARK  242  A    between atoms: _568  and  _571
REMARK  243  A    between atoms: _571  and  _572
REMARK  244  A    between atoms: _575  and  _577
REMARK  245  A    between atoms: _577  and  _578
REMARK  246  A    between atoms: _577  and  _580
REMARK  247  A    between atoms: _580  and  _581
REMARK  248  A    between atoms: _581  and  _582
REMARK  249  A    between atoms: _582  and  _583
REMARK  250  A    between atoms: _592  and  _594
REMARK  251  A    between atoms: _594  and  _595
REMARK  252  A    between atoms: _594  and  _597
REMARK  253  A    between atoms: _597  and  _598
REMARK  254  A    between atoms: _598  and  _599
REMARK  255  A    between atoms: _601  and  _603
REMARK  256  A    between atoms: _603  and  _604
REMARK  257  A    between atoms: _603  and  _606
REMARK  258  A    between atoms: _606  and  _607
REMARK                            x       y       z     vdW  Elec       q    Type
REMARK                         _______ _______ _______ _____ _____    ______ ____
ROOT
ATOM      1  CA  VAL A   1      37.021   5.247  81.033  0.00  0.00    +0.133 C 
ENDROOT
BRANCH   1   2
ATOM      2  CB  VAL A   1      37.480   6.700  80.932  0.00  0.00    +0.023 C 
ATOM      3  CG2 VAL A   1      36.796   7.552  81.996  0.00  0.00    +0.002 C 
ATOM      4  CG1 VAL A   1      39.006   6.780  81.048  0.00  0.00    +0.002 C 
ENDBRANCH   1   2
BRANCH   1   5
ATOM      5  N   VAL A   1      37.475   4.482  79.864  0.00  0.00    -0.239 NA
ATOM      6  H   VAL A   1      37.849   4.987  79.035  0.00  0.00    +0.142 HD
ENDBRANCH   1   5
BRANCH   1   7
ATOM      7  C   VAL A   1      35.532   5.119  81.221  0.00  0.00    +0.224 C 
ATOM      8  O   VAL A   1      35.059   4.904  82.341  0.00  0.00    -0.287 OA
ENDBRANCH   1   7
TORSDOF 3
REMARK  Name = ../refined-set-2016/1fcy/1fcy_pocket.pdb
REMARK  258 active torsions:
REMARK  status: ('A' for Active; 'I' for Inactive)
REMARK    1  A    between atoms: _1  and  _3
REMARK    2  A    between atoms: _3  and  _4
REMARK    3  A    between atoms: _3  and  _6
REMARK    4  A    between atoms: _6  and  _7
REMARK    5  A    between atoms: _10  and  _12
REMARK    6  A    between atoms: _12  and  _13
REMARK    7  A    between atoms: _12  and  _15
REMARK    8  A    between atoms: _15  and  _16
REMARK    9  A    between atoms: _23  and  _24
REMARK   10  A    between atoms: _29  and  _31
REMARK   11  A    between atoms: _31  and  _32
REMARK   12  A    between atoms: _31  and  _34
REMARK   13  A    between atoms: _34  and  _35
REMARK   14  A    between atoms: _38  and  _40
REMARK   15  A    between atoms: _40  and  _41
REMARK   16  A    between atoms: _40  and  _43
REMARK   17  A    between atoms: _43  and  _44
REMARK   18  A    between atoms: _54  and  _56
REMARK   19  A    between atoms: _56  and  _57
REMARK   20  A    between atoms: _56  and  _59
REMARK   21  A    between atoms: _59  and  _60
REMARK   22  A    between atoms: _60  and  _61
REMARK   23  A    between atoms: _61  and  _62
REMARK   24  A    between atoms: _62  and  _63
REMARK   25  A    between atoms: _67  and  _69
REMARK   26  A    between atoms: _69  and  _70
REMARK   27  A    between atoms: _69  and  _72
REMARK   28  A    between atoms: _72  and  _73
REMARK   29  A    between atoms: _79  and  _81
REMARK   30  A    between atoms: _81  and  _82
REMARK   31  A    between atoms: _81  and  _84
REMARK   32  A    between atoms: _84  and  _85
REMARK   33  A    between atoms: _87  and  _89
REMARK   34  A    between atoms: _89  and  _90
REMARK   35  A    between atoms: _89  and  _92
REMARK   36  A    between atoms: _92  and  _93
REMARK   37  A    between atoms: _93  and  _94
REMARK   38  A    between atoms: _97  and  _99
REMARK   39  A    between atoms: _99  and  _100
REMARK   40  A    between atoms: _99  and  _102
REMARK   41  A    between atoms: _102  and  _103
REMARK   42  A    between atoms: _106  and  _108
REMARK   43  A    between atoms: _108  and  _109
REMARK   44  A    between atoms: _112  and  _114
REMARK   45  A    between atoms: _114  and  _115
REMARK   46  A    between atoms: _114  and  _117
REMARK   47  A    between atoms: _117  and  _118
REMARK   48  A    between atoms: _121  and  _123
REMARK   49  A    between atoms: _123  and  _124
REMARK   50  A    between atoms: _123  and  _126
REMARK   51  A    between atoms: _127  and  _128
REMARK   52  A    between atoms: _128  and  _129
REMARK   53  A    between atoms: _129  and  _130
REMARK   54  A    between atoms: _134  and  _136
REMARK   55  A    between atoms: _136  and  _137
REMARK   56  A    between atoms: _136  and  _139
REMARK   57  A    between atoms: _141  and  _143
REMARK   58  A    between atoms: _143  and  _144
REMARK   59  A    between atoms: _143  and  _146
REMARK   60  A    between atoms: _146  and  _147
REMARK   61  A    between atoms: _150  and  _152
REMARK   62  A    between atoms: _152  and  _153
REMARK   63  A    between atoms: _152  and  _155
REMARK   64  A    between atoms: _155  and  _156
REMARK   65  A    between atoms: _156  and  _157
REMARK   66  A    between atoms: _157  and  _158
REMARK   67  A    between atoms: _158  and  _159
REMARK   68  A    between atoms: _163  and  _165
REMARK   69  A    between atoms: _165  and  _166
REMARK   70  A    between atoms: _165  and  _168
REMARK   71  A    between atoms: _168  and  _169
REMARK   72  A    between atoms: _172  and  _174
REMARK   73  A    between atoms: _174  and  _175
REMARK   74  A    between atoms: _174  and  _177
REMARK   75  A    between atoms: _179  and  _181
REMARK   76  A    between atoms: _181  and  _182
REMARK   77  A    between atoms: _181  and  _184
REMARK   78  A    between atoms: _184  and  _185
REMARK   79  A    between atoms: _188  and  _190
REMARK   80  A    between atoms: _190  and  _191
REMARK   81  A    between atoms: _190  and  _193
REMARK   82  A    between atoms: _193  and  _194
REMARK   83  A    between atoms: _197  and  _199
REMARK   84  A    between atoms: _199  and  _200
REMARK   85  A    between atoms: _199  and  _202
REMARK   86  A    between atoms: _202  and  _203
REMARK   87  A    between atoms: _206  and  _208
REMARK   88  A    between atoms: _208  and  _209
REMARK   89  A    between atoms: _208  and  _211
REMARK   90  A    between atoms: _211  and  _212
REMARK   91  A    between atoms: _215  and  _217
REMARK   92  A    between atoms: _217  and  _218
REMARK   93  A    between atoms: _217  and  _220
REMARK   94  A    between atoms: _220  and  _221
REMARK   95  A    between atoms: _221  and  _222
REMARK   96  A    between atoms: _224  and  _226
REMARK   97  A    between atoms: _226  and  _227
REMARK   98  A    between atoms: _226  and  _229
REMARK   99  A    between atoms: _229  and  _230
REMARK  100  A    between atoms: _233  and  _235
REMARK  101  A    between atoms: _235  and  _236
REMARK  102  A    between atoms: _235  and  _238
REMARK  103  A    between atoms: _238  and  _239
REMARK  104  A    between atoms: _239  and  _240
REMARK  105  A    between atoms: _240  and  _241
REMARK  106  A    between atoms: _250  and  _252
REMARK  107  A    between atoms: _252  and  _253
REMARK  108  A    between atoms: _252  and  _255
REMARK  109  A    between atoms: _255  and  _256
REMARK  110  A    between atoms: _259  and  _261
REMARK  111  A    between atoms: _261  and  _262
REMARK  112  A    between atoms: _261  and  _264
REMARK  113  A    between atoms: _266  and  _268
REMARK  114  A    between atoms: _268  and  _269
REMARK  115  A    between atoms: _268  and  _271
REMARK  116  A    between atoms: _271  and  _272
REMARK  117  A    between atoms: _275  and  _277
REMARK  118  A    between atoms: _277  and  _278
REMARK  119  A    between atoms: _277  and  _280
REMARK  120  A    between atoms: _280  and  _281
REMARK  121  A    between atoms: _281  and  _282
REMARK  122  A    between atoms: _282  and  _283
REMARK  123  A    between atoms: _292  and  _294
REMARK  124  A    between atoms: _294  and  _295
REMARK  125  A    between atoms: _294  and  _297
REMARK  126  A    between atoms: _297  and  _298
REMARK  127  A    between atoms: _298  and  _299
REMARK  128  A    between atoms: _301  and  _303
REMARK  129  A    between atoms: _303  and  _304
REMARK  130  A    between atoms: _303  and  _306
REMARK  131  A    between atoms: _306  and  _307
REMARK  132  A    between atoms: _310  and  _312
REMARK  133  A    between atoms: _312  and  _313
REMARK  134  A    between atoms: _312  and  _315
REMARK  135  A    between atoms: _315  and  _316
REMARK  136  A    between atoms: _322  and  _324
REMARK  137  A    between atoms: _324  and  _325
REMARK  138  A    between atoms: _324  and  _327
REMARK  139  A    between atoms: _327  and  _328
REMARK  140  A    between atoms: _330  and  _332
REMARK  141  A    between atoms: _332  and  _333
REMARK  142  A    between atoms: _332  and  _335
REMARK  143  A    between atoms: _335  and  _336
REMARK  144  A    between atoms: _339  and  _341
REMARK  145  A    between atoms: _341  and  _342
REMARK  146  A    between atoms: _344  and  _346
REMARK  147  A    between atoms: _346  and  _347
REMARK  148  A    between atoms: _346  and  _349
REMARK  149  A    between atoms: _349  and  _350
REMARK  150  A    between atoms: _353  and  _355
REMARK  151  A    between atoms: _355  and  _356
REMARK  152  A    between atoms: _355  and  _358
REMARK  153  A    between atoms: _358  and  _359
REMARK  154  A    between atoms: _359  and  _360
REMARK  155  A    between atoms: _362  and  _364
REMARK  156  A    between atoms: _364  and  _365
REMARK  157  A    between atoms: _364  and  _367
REMARK  158  A    between atoms: _367  and  _368
REMARK  159  A    between atoms: _373  and  _375
REMARK  160  A    between atoms: _375  and  _376
REMARK  161  A    between atoms: _379  and  _381
REMARK  162  A    between atoms: _381  and  _382
REMARK  163  A    between atoms: _384  and  _386
REMARK  164  A    between atoms: _386  and  _387
REMARK  165  A    between atoms: _386  and  _389
REMARK  166  A    between atoms: _389  and  _390
REMARK  167  A    between atoms: _396  and  _398
REMARK  168  A    between atoms: _398  and  _399
REMARK  169  A    between atoms: _401  and  _403
REMARK  170  A    between atoms: _403  and  _404
REMARK  171  A    between atoms: _403  and  _406
REMARK  172  A    between atoms: _406  and  _407
REMARK  173  A    between atoms: _410  and  _412
REMARK  174  A    between atoms: _412  and  _413
REMARK  175  A    between atoms: _412  and  _415
REMARK  176  A    between atoms: _415  and  _416
REMARK  177  A    between atoms: _419  and  _421
REMARK  178  A    between atoms: _421  and  _422
REMARK  179  A    between atoms: _421  and  _424
REMARK  180  A    between atoms: _427  and  _429
REMARK  181  A    between atoms: _429  and  _430
REMARK  182  A    between atoms: _429  and  _432
REMARK  183  A    between atoms: _432  and  _433
REMARK  184  A    between atoms: _436  and  _438
REMARK  185  A    between atoms: _438  and  _439
REMARK  186  A    between atoms: _438  and  _441
REMARK  187  A    between atoms: _441  and  _442
REMARK  188  A    between atoms: _444  and  _446
REMARK  189  A    between atoms: _446  and  _447
REMARK  190  A    between atoms: _446  and  _449
REMARK  191  A    between atoms: _449  and  _450
REMARK  192  A    between atoms: _450  and  _451
REMARK  193  A    between atoms: _451  and  _452
REMARK  194  A    between atoms: _452  and  _453
REMARK  195  A    between atoms: _457  and  _459
REMARK  196  A    between atoms: _459  and  _460
REMARK  197  A    between atoms: _462  and  _464
REMARK  198  A    between atoms: _464  and  _465
REMARK  199  A    between atoms: _468  and  _470
REMARK  200  A    between atoms: _470  and  _471
REMARK  201  A    between atoms: _470  and  _473
REMARK  202  A    between atoms: _474  and  _475
REMARK  203  A    between atoms: _478  and  _480
REMARK  204  A    between atoms: _480  and  _481
REMARK  205  A    between atoms: _480  and  _483
REMARK  206  A    between atoms: _483  and  _484
REMARK  207  A    between atoms: _484  and  _485
REMARK  208  A    between atoms: _485  and  _486
REMARK  209  A    between atoms: _495  and  _497
REMARK  210  A    between atoms: _497  and  _498
REMARK  211  A    between atoms: _501  and  _503
REMARK  212  A    between atoms: _503  and  _504
REMARK  213  A    between atoms: _503  and  _506
REMARK  214  A    between atoms: _506  and  _507
REMARK  215  A    between atoms: _510  and  _512
REMARK  216  A    between atoms: _512  and  _513
REMARK  217  A    between atoms: _512  and  _515
REMARK  218  A    between atoms: _515  and  _516
REMARK  219  A    between atoms: _519  and  _521
REMARK  220  A    between atoms: _521  and  _522
REMARK  221  A    between atoms: _521  and  _524
REMARK  222  A    between atoms: _524  and  _525
REMARK  223  A    between atoms: _528  and  _530
REMARK  224  A    between atoms: _530  and  _531
REMARK  225  A    between atoms: _530  and  _533
REMARK  226  A    between atoms: _533  and  _534
REMARK  227  A    between atoms: _534  and  _535
REMARK  228  A    between atoms: _535  and  _536
REMARK  229  A    between atoms: _536  and  _537
REMARK  230  A    between atoms: _541  and  _543
REMARK  231  A    between atoms: _543  and  _544
REMARK  232  A    between atoms: _543  and  _546
REMARK  233  A    between atoms: _546  and  _547
REMARK  234  A    between atoms: _550  and  _552
REMARK  235  A    between atoms: _552  and  _553
REMARK  236  A    between atoms: _552  and  _555
REMARK  237  A    between atoms: _555  and  _556
REMARK  238  A    between atoms: _556  and  _557
REMARK  239  A    between atoms: _560  and  _561
REMARK  240  A    between atoms: _566  and  _568
REMARK  241  A    between atoms: _568  and  _569
REMARK  242  A    between atoms: _568  and  _571
REMARK  243  A    between atoms: _571  and  _572
REMARK  244  A    between atoms: _575  and  _577
REMARK  245  A    between atoms: _577  and  _578
REMARK  246  A    between atoms: _577  and  _580
REMARK  247  A    between atoms: _580  and  _581
REMARK  248  A    between atoms: _581  and  _582
REMARK  249  A    between atoms: _582  and  _583
REMARK  250  A    between atoms: _592  and  _594
REMARK  251  A    between atoms: _594  and  _595
REMARK  252  A    between atoms: _594  and  _597
REMARK  253  A    between atoms: _597  and  _598
REMARK  254  A    between atoms: _598  and  _599
REMARK  255  A    between atoms: _601  and  _603
REMARK  256  A    between atoms: _603  and  _604
REMARK  257  A    between atoms: _603  and  _606
REMARK  258  A    between atoms: _606  and  _607
REMARK                            x       y       z     vdW  Elec       q    Type
REMARK                         _______ _______ _______ _____ _____    ______ ____
ROOT
ATOM      1  C   ILE A   1      43.956   5.230  84.265  0.00  0.00    +0.238 C 
ATOM      2  N   SER A   2      44.431   5.520  85.479  0.00  0.00    -0.296 N 
ATOM      3  H   SER A   2      44.238   4.894  86.287  0.00  0.00    +0.150 HD
ATOM      4  O   ILE A   1      44.126   5.933  83.259  0.00  0.00    -0.274 OA
ENDROOT
BRANCH   1   5
ATOM      5  CA  ILE A   1      43.246   3.913  84.040  0.00  0.00    +0.145 C 
BRANCH   5   6
ATOM      6  N   ILE A   1      43.772   2.903  84.957  0.00  0.00    -0.238 NA
ATOM      7  H   ILE A   1      43.236   2.623  85.803  0.00  0.00    +0.142 HD
ENDBRANCH   5   6
BRANCH   5   8
ATOM      8  CB  ILE A   1      41.727   4.068  84.117  0.00  0.00    +0.025 C 
ATOM      9  CG2 ILE A   1      41.100   2.700  83.787  0.00  0.00    +0.002 C 
BRANCH   8  10
ATOM     10  CG1 ILE A   1      41.044   4.572  85.369  0.00  0.00    +0.002 C 
ATOM     11  CD1 ILE A   1      39.610   5.016  85.097  0.00  0.00    +0.000 C 
ENDBRANCH   8  10
ENDBRANCH   5   8
ENDBRANCH   1   5
BRANCH   2  12
ATOM     12  CA  SER A   2      45.242   6.755  85.655  0.00  0.00    +0.166 C 
BRANCH  12  13
ATOM     13  C   SER A   2      46.617   6.619  85.025  0.00  0.00    +0.229 C 
ATOM     14  O   SER A   2      47.169   7.609  84.495  0.00  0.00    -0.286 OA
ENDBRANCH  12  13
BRANCH  12  15
ATOM     15  CB  SER A   2      45.300   7.198  87.115  0.00  0.00    +0.165 C 
BRANCH  15  16
ATOM     16  OG  SER A   2      46.111   6.265  87.781  0.00  0.00    -0.380 OA
ATOM     17  H   SER A   2      46.179   6.512  88.737  0.00  0.00    +0.211 HD
ENDBRANCH  15  16
ENDBRANCH  12  15
ENDBRANCH   2  12
TORSDOF 8
REMARK  Name = ../refined-set-2016/1fcy/1fcy_pocket.pdb
REMARK  258 active torsions:
REMARK  status: ('A' for Active; 'I' for Inactive)
REMARK    1  A    between atoms: _1  and  _3
REMARK    2  A    between atoms: _3  and  _4
REMARK    3  A    between atoms: _3  and  _6
REMARK    4  A    between atoms: _6  and  _7
REMARK    5  A    between atoms: _10  and  _12
REMARK    6  A    between atoms: _12  and  _13
REMARK    7  A    between atoms: _12  and  _15
REMARK    8  A    between atoms: _15  and  _16
REMARK    9  A    between atoms: _23  and  _24
REMARK   10  A    between atoms: _29  and  _31
REMARK   11  A    between atoms: _31  and  _32
REMARK   12  A    between atoms: _31  and  _34
REMARK   13  A    between atoms: _34  and  _35
REMARK   14  A    between atoms: _38  and  _40
REMARK   15  A    between atoms: _40  and  _41
REMARK   16  A    between atoms: _40  and  _43
REMARK   17  A    between atoms: _43  and  _44
REMARK   18  A    between atoms: _54  and  _56
REMARK   19  A    between atoms: _56  and  _57
REMARK   20  A    between atoms: _56  and  _59
REMARK   21  A    between atoms: _59  and  _60
REMARK   22  A    between atoms: _60  and  _61
REMARK   23  A    between atoms: _61  and  _62
REMARK   24  A    between atoms: _62  and  _63
REMARK   25  A    between atoms: _67  and  _69
REMARK   26  A    between atoms: _69  and  _70
REMARK   27  A    between atoms: _69  and  _72
REMARK   28  A    between atoms: _72  and  _73
REMARK   29  A    between atoms: _79  and  _81
REMARK   30  A    between atoms: _81  and  _82
REMARK   31  A    between atoms: _81  and  _84
REMARK   32  A    between atoms: _84  and  _85
REMARK   33  A    between atoms: _87  and  _89
REMARK   34  A    between atoms: _89  and  _90
REMARK   35  A    between atoms: _89  and  _92
REMARK   36  A    between atoms: _92  and  _93
REMARK   37  A    between atoms: _93  and  _94
REMARK   38  A    between atoms: _97  and  _99
REMARK   39  A    between atoms: _99  and  _100
REMARK   40  A    between atoms: _99  and  _102
REMARK   41  A    between atoms: _102  and  _103
REMARK   42  A    between atoms: _106  and  _108
REMARK   43  A    between atoms: _108  and  _109
REMARK   44  A    between atoms: _112  and  _114
REMARK   45  A    between atoms: _114  and  _115
REMARK   46  A    between atoms: _114  and  _117
REMARK   47  A    between atoms: _117  and  _118
REMARK   48  A    between atoms: _121  and  _123
REMARK   49  A    between atoms: _123  and  _124
REMARK   50  A    between atoms: _123  and  _126
REMARK   51  A    between atoms: _127  and  _128
REMARK   52  A    between atoms: _128  and  _129
REMARK   53  A    between atoms: _129  and  _130
REMARK   54  A    between atoms: _134  and  _136
REMARK   55  A    between atoms: _136  and  _137
REMARK   56  A    between atoms: _136  and  _139
REMARK   57  A    between atoms: _141  and  _143
REMARK   58  A    between atoms: _143  and  _144
REMARK   59  A    between atoms: _143  and  _146
REMARK   60  A    between atoms: _146  and  _147
REMARK   61  A    between atoms: _150  and  _152
REMARK   62  A    between atoms: _152  and  _153
REMARK   63  A    between atoms: _152  and  _155
REMARK   64  A    between atoms: _155  and  _156
REMARK   65  A    between atoms: _156  and  _157
REMARK   66  A    between atoms: _157  and  _158
REMARK   67  A    between atoms: _158  and  _159
REMARK   68  A    between atoms: _163  and  _165
REMARK   69  A    between atoms: _165  and  _166
REMARK   70  A    between atoms: _165  and  _168
REMARK   71  A    between atoms: _168  and  _169
REMARK   72  A    between atoms: _172  and  _174
REMARK   73  A    between atoms: _174  and  _175
REMARK   74  A    between atoms: _174  and  _177
REMARK   75  A    between atoms: _179  and  _181
REMARK   76  A    between atoms: _181  and  _182
REMARK   77  A    between atoms: _181  and  _184
REMARK   78  A    between atoms: _184  and  _185
REMARK   79  A    between atoms: _188  and  _190
REMARK   80  A    between atoms: _190  and  _191
REMARK   81  A    between atoms: _190  and  _193
REMARK   82  A    between atoms: _193  and  _194
REMARK   83  A    between atoms: _197  and  _199
REMARK   84  A    between atoms: _199  and  _200
REMARK   85  A    between atoms: _199  and  _202
REMARK   86  A    between atoms: _202  and  _203
REMARK   87  A    between atoms: _206  and  _208
REMARK   88  A    between atoms: _208  and  _209
REMARK   89  A    between atoms: _208  and  _211
REMARK   90  A    between atoms: _211  and  _212
REMARK   91  A    between atoms: _215  and  _217
REMARK   92  A    between atoms: _217  and  _218
REMARK   93  A    between atoms: _217  and  _220
REMARK   94  A    between atoms: _220  and  _221
REMARK   95  A    between atoms: _221  and  _222
REMARK   96  A    between atoms: _224  and  _226
REMARK   97  A    between atoms: _226  and  _227
REMARK   98  A    between atoms: _226  and  _229
REMARK   99  A    between atoms: _229  and  _230
REMARK  100  A    between atoms: _233  and  _235
REMARK  101  A    between atoms: _235  and  _236
REMARK  102  A    between atoms: _235  and  _238
REMARK  103  A    between atoms: _238  and  _239
REMARK  104  A    between atoms: _239  and  _240
REMARK  105  A    between atoms: _240  and  _241
REMARK  106  A    between atoms: _250  and  _252
REMARK  107  A    between atoms: _252  and  _253
REMARK  108  A    between atoms: _252  and  _255
REMARK  109  A    between atoms: _255  and  _256
REMARK  110  A    between atoms: _259  and  _261
REMARK  111  A    between atoms: _261  and  _262
REMARK  112  A    between atoms: _261  and  _264
REMARK  113  A    between atoms: _266  and  _268
REMARK  114  A    between atoms: _268  and  _269
REMARK  115  A    between atoms: _268  and  _271
REMARK  116  A    between atoms: _271  and  _272
REMARK  117  A    between atoms: _275  and  _277
REMARK  118  A    between atoms: _277  and  _278
REMARK  119  A    between atoms: _277  and  _280
REMARK  120  A    between atoms: _280  and  _281
REMARK  121  A    between atoms: _281  and  _282
REMARK  122  A    between atoms: _282  and  _283
REMARK  123  A    between atoms: _292  and  _294
REMARK  124  A    between atoms: _294  and  _295
REMARK  125  A    between atoms: _294  and  _297
REMARK  126  A    between atoms: _297  and  _298
REMARK  127  A    between atoms: _298  and  _299
REMARK  128  A    between atoms: _301  and  _303
REMARK  129  A    between atoms: _303  and  _304
REMARK  130  A    between atoms: _303  and  _306
REMARK  131  A    between atoms: _306  and  _307
REMARK  132  A    between atoms: _310  and  _312
REMARK  133  A    between atoms: _312  and  _313
REMARK  134  A    between atoms: _312  and  _315
REMARK  135  A    between atoms: _315  and  _316
REMARK  136  A    between atoms: _322  and  _324
REMARK  137  A    between atoms: _324  and  _325
REMARK  138  A    between atoms: _324  and  _327
REMARK  139  A    between atoms: _327  and  _328
REMARK  140  A    between atoms: _330  and  _332
REMARK  141  A    between atoms: _332  and  _333
REMARK  142  A    between atoms: _332  and  _335
REMARK  143  A    between atoms: _335  and  _336
REMARK  144  A    between atoms: _339  and  _341
REMARK  145  A    between atoms: _341  and  _342
REMARK  146  A    between atoms: _344  and  _346
REMARK  147  A    between atoms: _346  and  _347
REMARK  148  A    between atoms: _346  and  _349
REMARK  149  A    between atoms: _349  and  _350
REMARK  150  A    between atoms: _353  and  _355
REMARK  151  A    between atoms: _355  and  _356
REMARK  152  A    between atoms: _355  and  _358
REMARK  153  A    between atoms: _358  and  _359
REMARK  154  A    between atoms: _359  and  _360
REMARK  155  A    between atoms: _362  and  _364
REMARK  156  A    between atoms: _364  and  _365
REMARK  157  A    between atoms: _364  and  _367
REMARK  158  A    between atoms: _367  and  _368
REMARK  159  A    between atoms: _373  and  _375
REMARK  160  A    between atoms: _375  and  _376
REMARK  161  A    between atoms: _379  and  _381
REMARK  162  A    between atoms: _381  and  _382
REMARK  163  A    between atoms: _384  and  _386
REMARK  164  A    between atoms: _386  and  _387
REMARK  165  A    between atoms: _386  and  _389
REMARK  166  A    between atoms: _389  and  _390
REMARK  167  A    between atoms: _396  and  _398
REMARK  168  A    between atoms: _398  and  _399
REMARK  169  A    between atoms: _401  and  _403
REMARK  170  A    between atoms: _403  and  _404
REMARK  171  A    between atoms: _403  and  _406
REMARK  172  A    between atoms: _406  and  _407
REMARK  173  A    between atoms: _410  and  _412
REMARK  174  A    between atoms: _412  and  _413
REMARK  175  A    between atoms: _412  and  _415
REMARK  176  A    between atoms: _415  and  _416
REMARK  177  A    between atoms: _419  and  _421
REMARK  178  A    between atoms: _421  and  _422
REMARK  179  A    between atoms: _421  and  _424
REMARK  180  A    between atoms: _427  and  _429
REMARK  181  A    between atoms: _429  and  _430
REMARK  182  A    between atoms: _429  and  _432
REMARK  183  A    between atoms: _432  and  _433
REMARK  184  A    between atoms: _436  and  _438
REMARK  185  A    between atoms: _438  and  _439
REMARK  186  A    between atoms: _438  and  _441
REMARK  187  A    between atoms: _441  and  _442
REMARK  188  A    between atoms: _444  and  _446
REMARK  189  A    between atoms: _446  and  _447
REMARK  190  A    between atoms: _446  and  _449
REMARK  191  A    between atoms: _449  and  _450
REMARK  192  A    between atoms: _450  and  _451
REMARK  193  A    between atoms: _451  and  _452
REMARK  194  A    between atoms: _452  and  _453
REMARK  195  A    between atoms: _457  and  _459
REMARK  196  A    between atoms: _459  and  _460
REMARK  197  A    between atoms: _462  and  _464
REMARK  198  A    between atoms: _464  and  _465
REMARK  199  A    between atoms: _468  and  _470
REMARK  200  A    between atoms: _470  and  _471
REMARK  201  A    between atoms: _470  and  _473
REMARK  202  A    between atoms: _474  and  _475
REMARK  203  A    between atoms: _478  and  _480
REMARK  204  A    between atoms: _480  and  _481
REMARK  205  A    between atoms: _480  and  _483
REMARK  206  A    between atoms: _483  and  _484
REMARK  207  A    between atoms: _484  and  _485
REMARK  208  A    between atoms: _485  and  _486
REMARK  209  A    between atoms: _495  and  _497
REMARK  210  A    between atoms: _497  and  _498
REMARK  211  A    between atoms: _501  and  _503
REMARK  212  A    between atoms: _503  and  _504
REMARK  213  A    between atoms: _503  and  _506
REMARK  214  A    between atoms: _506  and  _507
REMARK  215  A    between atoms: _510  and  _512
REMARK  216  A    between atoms: _512  and  _513
REMARK  217  A    between atoms: _512  and  _515
REMARK  218  A    between atoms: _515  and  _516
REMARK  219  A    between atoms: _519  and  _521
REMARK  220  A    between atoms: _521  and  _522
REMARK  221  A    between atoms: _521  and  _524
REMARK  222  A    between atoms: _524  and  _525
REMARK  223  A    between atoms: _528  and  _530
REMARK  224  A    between atoms: _530  and  _531
REMARK  225  A    between atoms: _530  and  _533
REMARK  226  A    between atoms: _533  and  _534
REMARK  227  A    between atoms: _534  and  _535
REMARK  228  A    between atoms: _535  and  _536
REMARK  229  A    between atoms: _536  and  _537
REMARK  230  A    between atoms: _541  and  _543
REMARK  231  A    between atoms: _543  and  _544
REMARK  232  A    between atoms: _543  and  _546
REMARK  233  A    between atoms: _546  and  _547
REMARK  234  A    between atoms: _550  and  _552
REMARK  235  A    between atoms: _552  and  _553
REMARK  236  A    between atoms: _552  and  _555
REMARK  237  A    between atoms: _555  and  _556
REMARK  238  A    between atoms: _556  and  _557
REMARK  239  A    between atoms: _560  and  _561
REMARK  240  A    between atoms: _566  and  _568
REMARK  241  A    between atoms: _568  and  _569
REMARK  242  A    between atoms: _568  and  _571
REMARK  243  A    between atoms: _571  and  _572
REMARK  244  A    between atoms: _575  and  _577
REMARK  245  A    between atoms: _577  and  _578
REMARK  246  A    between atoms: _577  and  _580
REMARK  247  A    between atoms: _580  and  _581
REMARK  248  A    between atoms: _581  and  _582
REMARK  249  A    between atoms: _582  and  _583
REMARK  250  A    between atoms: _592  and  _594
REMARK  251  A    between atoms: _594  and  _595
REMARK  252  A    between atoms: _594  and  _597
REMARK  253  A    between atoms: _597  and  _598
REMARK  254  A    between atoms: _598  and  _599
REMARK  255  A    between atoms: _601  and  _603
REMARK  256  A    between atoms: _603  and  _604
REMARK  257  A    between atoms: _603  and  _606
REMARK  258  A    between atoms: _606  and  _607
REMARK                            x       y       z     vdW  Elec       q    Type
REMARK                         _______ _______ _______ _____ _____    ______ ____
ROOT
ATOM      1  CA  ARG A   5      47.290  10.179  77.089  0.00  0.00    +0.149 C 
ENDROOT
BRANCH   1   2
ATOM      2  C   ARG A   5      47.753  11.627  77.244  0.00  0.00    +0.241 C 
ATOM      3  N   ALA A   6      48.141  12.072  78.431  0.00  0.00    -0.297 N 
ATOM      4  H   ALA A   6      48.111  11.423  79.243  0.00  0.00    +0.150 HD
ATOM      5  O   ARG A   5      47.785  12.367  76.265  0.00  0.00    -0.273 OA
BRANCH   3   6
ATOM      6  CA  ALA A   6      48.612  13.450  78.643  0.00  0.00    +0.149 C 
ATOM      7  CB  ALA A   6      48.959  13.722  80.065  0.00  0.00    +0.031 C 
BRANCH   6   8
ATOM      8  C   ALA A   6      49.803  13.720  77.711  0.00  0.00    +0.241 C 
ATOM      9  N   ILE A   7      50.685  12.746  77.514  0.00  0.00    -0.297 N 
ATOM     10  H   ILE A   7      50.527  11.825  77.970  0.00  0.00    +0.150 HD
ATOM     11  O   ALA A   6      49.925  14.802  77.122  0.00  0.00    -0.273 OA
BRANCH   9  12
ATOM     12  CA  ILE A   7      51.856  12.925  76.688  0.00  0.00    +0.149 C 
BRANCH  12  13
ATOM     13  C   ILE A   7      51.449  13.172  75.248  0.00  0.00    +0.241 C 
ATOM     14  N   THR A   8      50.522  12.391  74.704  0.00  0.00    -0.295 N 
ATOM     15  H   THR A   8      50.088  11.622  75.254  0.00  0.00    +0.150 HD
ATOM     16  O   ILE A   7      51.913  14.087  74.548  0.00  0.00    -0.273 OA
BRANCH  14  17
ATOM     17  CA  THR A   8      50.118  12.636  73.301  0.00  0.00    +0.176 C 
BRANCH  17  18
ATOM     18  C   THR A   8      49.248  13.887  73.188  0.00  0.00    +0.243 C 
ATOM     19  N   LEU A   9      48.423  14.201  74.191  0.00  0.00    -0.297 N 
ATOM     20  H   LEU A   9      48.397  13.582  75.026  0.00  0.00    +0.150 HD
ATOM     21  O   THR A   8      49.371  14.605  72.214  0.00  0.00    -0.273 OA
BRANCH  19  22
ATOM     22  CA  LEU A   9      47.554  15.379  74.165  0.00  0.00    +0.149 C 
BRANCH  22  23
ATOM     23  C   LEU A   9      48.370  16.662  74.119  0.00  0.00    +0.241 C 
ATOM     24  N   LYS A  10      49.534  16.620  74.802  0.00  0.00    -0.298 N 
ATOM     25  H   LYS A  10      49.823  15.759  75.309  0.00  0.00    +0.150 HD
ATOM     26  O   LEU A   9      48.026  17.670  73.483  0.00  0.00    -0.273 OA
BRANCH  24  27
ATOM     27  CA  LYS A  10      50.376  17.808  74.813  0.00  0.00    +0.137 C 
BRANCH  27  28
ATOM     28  C   LYS A  10      50.753  18.272  73.416  0.00  0.00    +0.227 C 
ATOM     29  O   LYS A  10      50.955  19.480  73.151  0.00  0.00    -0.286 OA
ENDBRANCH  27  28
BRANCH  27  30
ATOM     30  CB  LYS A  10      51.669  17.495  75.566  0.00  0.00    +0.028 C 
BRANCH  30  31
ATOM     31  CG  LYS A  10      51.795  17.957  76.986  0.00  0.00    -0.000 C 
BRANCH  31  32
ATOM     32  CD  LYS A  10      52.884  17.176  77.724  0.00  0.00    -0.024 C 
BRANCH  32  33
ATOM     33  CE  LYS A  10      52.334  16.446  78.975  0.00  0.00    -0.086 C 
BRANCH  33  34
ATOM     34  NZ  LYS A  10      53.128  16.819  80.177  0.00  0.00    +0.380 N 
ATOM     35  HZ1 LYS A  10      52.749  16.323  81.009  0.00  0.00    -0.089 HD
ATOM     36  HZ2 LYS A  10      53.066  17.846  80.327  0.00  0.00    -0.089 HD
ATOM     37  HZ3 LYS A  10      54.122  16.548  80.033  0.00  0.00    -0.089 HD
ENDBRANCH  33  34
ENDBRANCH  32  33
ENDBRANCH  31  32
ENDBRANCH  30  31
ENDBRANCH  27  30
ENDBRANCH  24  27
ENDBRANCH  22  23
BRANCH  22  38
ATOM     38  CB  LEU A   9      46.589  15.289  75.364  0.00  0.00    +0.029 C 
BRANCH  38  39
ATOM     39  CG  LEU A   9      45.535  16.320  75.554  0.00  0.00    +0.002 C 
ATOM     40  CD2 LEU A   9      44.770  15.979  76.837  0.00  0.00    +0.000 C 
ATOM     41  CD1 LEU A   9      44.590  16.412  74.354  0.00  0.00    +0.000 C 
ENDBRANCH  38  39
ENDBRANCH  22  38
ENDBRANCH  19  22
ENDBRANCH  17  18
BRANCH  17  42
ATOM     42  CB  THR A   8      49.388  11.417  72.712  0.00  0.00    +0.137 C 
ATOM     43  CG2 THR A   8      50.356  10.239  72.725  0.00  0.00    +0.034 C 
BRANCH  42  44
ATOM     44  OG1 THR A   8      48.240  11.041  73.518  0.00  0.00    -0.382 OA
ATOM     45  HG1 THR A   8      47.795  10.256  73.111  0.00  0.00    +0.210 HD
ENDBRANCH  42  44
ENDBRANCH  17  42
ENDBRANCH  14  17
ENDBRANCH  12  13
BRANCH  12  46
ATOM     46  CB  ILE A   7      52.797  11.704  76.795  0.00  0.00    +0.027 C 
ATOM     47  CG2 ILE A   7      53.948  11.835  75.818  0.00  0.00    +0.002 C 
BRANCH  46  48
ATOM     48  CG1 ILE A   7      53.326  11.416  78.202  0.00  0.00    +0.002 C 
ATOM     49  CD1 ILE A   7      54.177  10.158  78.277  0.00  0.00    +0.000 C 
ENDBRANCH  46  48
ENDBRANCH  12  46
ENDBRANCH   9  12
ENDBRANCH   6   8
ENDBRANCH   3   6
ENDBRANCH   1   2
BRANCH   1  51
ATOM     50  C   GLU A   4      49.407   9.184  77.814  0.00  0.00    +0.245 C 
ATOM     51  N   ARG A   5      48.107   9.310  77.958  0.00  0.00    -0.297 N 
ATOM     52  H   ARG A   5      47.635   8.776  78.715  0.00  0.00    +0.150 HD
ATOM     53  O   GLU A   4      49.998   9.767  76.870  0.00  0.00    -0.273 OA
BRANCH  50  54
ATOM     54  CA  GLU A   4      50.156   8.286  78.800  0.00  0.00    +0.172 C 
BRANCH  54  56
ATOM     55  C   ALA A   3      49.901   9.703  80.728  0.00  0.00    +0.241 C 
ATOM     56  N   GLU A   4      49.660   8.514  80.147  0.00  0.00    -0.294 N 
ATOM     57  H   GLU A   4      49.130   7.774  80.651  0.00  0.00    +0.150 HD
ATOM     58  O   ALA A   3      50.531  10.576  80.140  0.00  0.00    -0.273 OA
BRANCH  55  59
ATOM     59  CA  ALA A   3      49.271   9.905  82.110  0.00  0.00    +0.149 C 
ATOM     60  CB  ALA A   3      50.208   9.418  83.190  0.00  0.00    +0.031 C 
BRANCH  59  62
ATOM     61  C   GLY A   2      46.957   9.638  81.470  0.00  0.00    +0.243 C 
ATOM     62  N   ALA A   3      47.982   9.250  82.229  0.00  0.00    -0.297 N 
ATOM     63  H   ALA A   3      47.857   8.474  82.910  0.00  0.00    +0.150 HD
ATOM     64  O   GLY A   2      47.029  10.577  80.676  0.00  0.00    -0.273 OA
BRANCH  61  65
ATOM     65  CA  GLY A   2      45.660   8.849  81.522  0.00  0.00    +0.176 C 
BRANCH  65  67
ATOM     66  C   LYS A   1      46.491   6.725  80.633  0.00  0.00    +0.238 C 
ATOM     67  N   GLY A   2      45.916   7.426  81.607  0.00  0.00    -0.296 N 
ATOM     68  H   GLY A   2      45.636   6.926  82.475  0.00  0.00    +0.150 HD
ATOM     69  O   LYS A   1      46.792   7.334  79.621  0.00  0.00    -0.274 OA
BRANCH  66  70
ATOM     70  CA  LYS A   1      46.760   5.239  80.819  0.00  0.00    +0.145 C 
BRANCH  70  71
ATOM     71  N   LYS A   1      47.099   4.971  82.210  0.00  0.00    -0.238 NA
ATOM     72  H   LYS A   1      46.468   4.366  82.773  0.00  0.00    +0.142 HD
ENDBRANCH  70  71
BRANCH  70  73
ATOM     73  CB  LYS A   1      45.554   4.412  80.383  0.00  0.00    +0.026 C 
BRANCH  73  74
ATOM     74  CG  LYS A   1      45.942   2.936  80.220  0.00  0.00    -0.000 C 
BRANCH  74  75
ATOM     75  CD  LYS A   1      44.743   2.026  79.966  0.00  0.00    -0.024 C 
BRANCH  75  76
ATOM     76  CE  LYS A   1      45.152   0.595  79.663  0.00  0.00    -0.086 C 
BRANCH  76  77
ATOM     77  NZ  LYS A   1      45.879   0.554  78.348  0.00  0.00    +0.380 N 
ATOM     78  HZ1 LYS A   1      46.726   1.155  78.403  0.00  0.00    -0.089 HD
ATOM     79  HZ2 LYS A   1      46.160  -0.425  78.139  0.00  0.00    -0.089 HD
ATOM     80  HZ3 LYS A   1      45.252   0.904  77.596  0.00  0.00    -0.089 HD
ENDBRANCH  76  77
ENDBRANCH  75  76
ENDBRANCH  74  75
ENDBRANCH  73  74
ENDBRANCH  70  73
ENDBRANCH  66  70
ENDBRANCH  65  67
ENDBRANCH  61  65
ENDBRANCH  59  62
ENDBRANCH  55  59
ENDBRANCH  54  56
BRANCH  54  81
ATOM     81  CB  GLU A   4      50.005   6.822  78.454  0.00  0.00    +0.009 C 
ATOM     82  CG  GLU A   4      50.669   5.810  79.362  0.00  0.00    +0.084 C 
BRANCH  82  83
ATOM     83  CD  GLU A   4      50.321   4.363  79.116  0.00  0.00    +0.388 C 
ATOM     84  OE2 GLU A   4      50.953   3.453  79.735  0.00  0.00    -0.241 OA
ATOM     85  OE1 GLU A   4      49.408   4.030  78.333  0.00  0.00    -0.241 OA
ENDBRANCH  82  83
ENDBRANCH  54  81
ENDBRANCH  50  54
ENDBRANCH   1  51
BRANCH   1  86
ATOM     86  CB  ARG A   5      45.808  10.005  77.410  0.00  0.00    +0.033 C 
BRANCH  86  87
ATOM     87  CG  ARG A   5      44.929  11.047  76.688  0.00  0.00    +0.045 C 
BRANCH  87  88
ATOM     88  CD  ARG A   5      45.019  10.933  75.203  0.00  0.00    +0.174 C 
BRANCH  88  89
ATOM     89  NE  ARG A   5      44.212  11.904  74.476  0.00  0.00    -0.265 N 
ATOM     90  HE  ARG A   5      43.275  12.130  74.867  0.00  0.00    +0.259 HD
ATOM     91  CZ  ARG A   5      44.569  12.529  73.353  0.00  0.00    +0.342 C 
ATOM     92  NH2 ARG A   5      43.692  13.350  72.817  0.00  0.00    -0.292 N 
ATOM     93 HH21 ARG A   5      42.766  13.489  73.269  0.00  0.00    +0.255 HD
ATOM     94 HH22 ARG A   5      43.925  13.860  71.941  0.00  0.00    +0.255 HD
ATOM     95  NH1 ARG A   5      45.745  12.398  72.770  0.00  0.00    -0.292 N 
ATOM     96 HH11 ARG A   5      46.465  11.774  73.187  0.00  0.00    +0.255 HD
ATOM     97 HH12 ARG A   5      45.952  12.919  71.894  0.00  0.00    +0.255 HD
ENDBRANCH  88  89
ENDBRANCH  87  88
ENDBRANCH  86  87
ENDBRANCH   1  86
TORSDOF 42
REMARK  Name = ../refined-set-2016/1fcy/1fcy_pocket.pdb
REMARK  258 active torsions:
REMARK  status: ('A' for Active; 'I' for Inactive)
REMARK    1  A    between atoms: _1  and  _3
REMARK    2  A    between atoms: _3  and  _4
REMARK    3  A    between atoms: _3  and  _6
REMARK    4  A    between atoms: _6  and  _7
REMARK    5  A    between atoms: _10  and  _12
REMARK    6  A    between atoms: _12  and  _13
REMARK    7  A    between atoms: _12  and  _15
REMARK    8  A    between atoms: _15  and  _16
REMARK    9  A    between atoms: _23  and  _24
REMARK   10  A    between atoms: _29  and  _31
REMARK   11  A    between atoms: _31  and  _32
REMARK   12  A    between atoms: _31  and  _34
REMARK   13  A    between atoms: _34  and  _35
REMARK   14  A    between atoms: _38  and  _40
REMARK   15  A    between atoms: _40  and  _41
REMARK   16  A    between atoms: _40  and  _43
REMARK   17  A    between atoms: _43  and  _44
REMARK   18  A    between atoms: _54  and  _56
REMARK   19  A    between atoms: _56  and  _57
REMARK   20  A    between atoms: _56  and  _59
REMARK   21  A    between atoms: _59  and  _60
REMARK   22  A    between atoms: _60  and  _61
REMARK   23  A    between atoms: _61  and  _62
REMARK   24  A    between atoms: _62  and  _63
REMARK   25  A    between atoms: _67  and  _69
REMARK   26  A    between atoms: _69  and  _70
REMARK   27  A    between atoms: _69  and  _72
REMARK   28  A    between atoms: _72  and  _73
REMARK   29  A    between atoms: _79  and  _81
REMARK   30  A    between atoms: _81  and  _82
REMARK   31  A    between atoms: _81  and  _84
REMARK   32  A    between atoms: _84  and  _85
REMARK   33  A    between atoms: _87  and  _89
REMARK   34  A    between atoms: _89  and  _90
REMARK   35  A    between atoms: _89  and  _92
REMARK   36  A    between atoms: _92  and  _93
REMARK   37  A    between atoms: _93  and  _94
REMARK   38  A    between atoms: _97  and  _99
REMARK   39  A    between atoms: _99  and  _100
REMARK   40  A    between atoms: _99  and  _102
REMARK   41  A    between atoms: _102  and  _103
REMARK   42  A    between atoms: _106  and  _108
REMARK   43  A    between atoms: _108  and  _109
REMARK   44  A    between atoms: _112  and  _114
REMARK   45  A    between atoms: _114  and  _115
REMARK   46  A    between atoms: _114  and  _117
REMARK   47  A    between atoms: _117  and  _118
REMARK   48  A    between atoms: _121  and  _123
REMARK   49  A    between atoms: _123  and  _124
REMARK   50  A    between atoms: _123  and  _126
REMARK   51  A    between atoms: _127  and  _128
REMARK   52  A    between atoms: _128  and  _129
REMARK   53  A    between atoms: _129  and  _130
REMARK   54  A    between atoms: _134  and  _136
REMARK   55  A    between atoms: _136  and  _137
REMARK   56  A    between atoms: _136  and  _139
REMARK   57  A    between atoms: _141  and  _143
REMARK   58  A    between atoms: _143  and  _144
REMARK   59  A    between atoms: _143  and  _146
REMARK   60  A    between atoms: _146  and  _147
REMARK   61  A    between atoms: _150  and  _152
REMARK   62  A    between atoms: _152  and  _153
REMARK   63  A    between atoms: _152  and  _155
REMARK   64  A    between atoms: _155  and  _156
REMARK   65  A    between atoms: _156  and  _157
REMARK   66  A    between atoms: _157  and  _158
REMARK   67  A    between atoms: _158  and  _159
REMARK   68  A    between atoms: _163  and  _165
REMARK   69  A    between atoms: _165  and  _166
REMARK   70  A    between atoms: _165  and  _168
REMARK   71  A    between atoms: _168  and  _169
REMARK   72  A    between atoms: _172  and  _174
REMARK   73  A    between atoms: _174  and  _175
REMARK   74  A    between atoms: _174  and  _177
REMARK   75  A    between atoms: _179  and  _181
REMARK   76  A    between atoms: _181  and  _182
REMARK   77  A    between atoms: _181  and  _184
REMARK   78  A    between atoms: _184  and  _185
REMARK   79  A    between atoms: _188  and  _190
REMARK   80  A    between atoms: _190  and  _191
REMARK   81  A    between atoms: _190  and  _193
REMARK   82  A    between atoms: _193  and  _194
REMARK   83  A    between atoms: _197  and  _199
REMARK   84  A    between atoms: _199  and  _200
REMARK   85  A    between atoms: _199  and  _202
REMARK   86  A    between atoms: _202  and  _203
REMARK   87  A    between atoms: _206  and  _208
REMARK   88  A    between atoms: _208  and  _209
REMARK   89  A    between atoms: _208  and  _211
REMARK   90  A    between atoms: _211  and  _212
REMARK   91  A    between atoms: _215  and  _217
REMARK   92  A    between atoms: _217  and  _218
REMARK   93  A    between atoms: _217  and  _220
REMARK   94  A    between atoms: _220  and  _221
REMARK   95  A    between atoms: _221  and  _222
REMARK   96  A    between atoms: _224  and  _226
REMARK   97  A    between atoms: _226  and  _227
REMARK   98  A    between atoms: _226  and  _229
REMARK   99  A    between atoms: _229  and  _230
REMARK  100  A    between atoms: _233  and  _235
REMARK  101  A    between atoms: _235  and  _236
REMARK  102  A    between atoms: _235  and  _238
REMARK  103  A    between atoms: _238  and  _239
REMARK  104  A    between atoms: _239  and  _240
REMARK  105  A    between atoms: _240  and  _241
REMARK  106  A    between atoms: _250  and  _252
REMARK  107  A    between atoms: _252  and  _253
REMARK  108  A    between atoms: _252  and  _255
REMARK  109  A    between atoms: _255  and  _256
REMARK  110  A    between atoms: _259  and  _261
REMARK  111  A    between atoms: _261  and  _262
REMARK  112  A    between atoms: _261  and  _264
REMARK  113  A    between atoms: _266  and  _268
REMARK  114  A    between atoms: _268  and  _269
REMARK  115  A    between atoms: _268  and  _271
REMARK  116  A    between atoms: _271  and  _272
REMARK  117  A    between atoms: _275  and  _277
REMARK  118  A    between atoms: _277  and  _278
REMARK  119  A    between atoms: _277  and  _280
REMARK  120  A    between atoms: _280  and  _281
REMARK  121  A    between atoms: _281  and  _282
REMARK  122  A    between atoms: _282  and  _283
REMARK  123  A    between atoms: _292  and  _294
REMARK  124  A    between atoms: _294  and  _295
REMARK  125  A    between atoms: _294  and  _297
REMARK  126  A    between atoms: _297  and  _298
REMARK  127  A    between atoms: _298  and  _299
REMARK  128  A    between atoms: _301  and  _303
REMARK  129  A    between atoms: _303  and  _304
REMARK  130  A    between atoms: _303  and  _306
REMARK  131  A    between atoms: _306  and  _307
REMARK  132  A    between atoms: _310  and  _312
REMARK  133  A    between atoms: _312  and  _313
REMARK  134  A    between atoms: _312  and  _315
REMARK  135  A    between atoms: _315  and  _316
REMARK  136  A    between atoms: _322  and  _324
REMARK  137  A    between atoms: _324  and  _325
REMARK  138  A    between atoms: _324  and  _327
REMARK  139  A    between atoms: _327  and  _328
REMARK  140  A    between atoms: _330  and  _332
REMARK  141  A    between atoms: _332  and  _333
REMARK  142  A    between atoms: _332  and  _335
REMARK  143  A    between atoms: _335  and  _336
REMARK  144  A    between atoms: _339  and  _341
REMARK  145  A    between atoms: _341  and  _342
REMARK  146  A    between atoms: _344  and  _346
REMARK  147  A    between atoms: _346  and  _347
REMARK  148  A    between atoms: _346  and  _349
REMARK  149  A    between atoms: _349  and  _350
REMARK  150  A    between atoms: _353  and  _355
REMARK  151  A    between atoms: _355  and  _356
REMARK  152  A    between atoms: _355  and  _358
REMARK  153  A    between atoms: _358  and  _359
REMARK  154  A    between atoms: _359  and  _360
REMARK  155  A    between atoms: _362  and  _364
REMARK  156  A    between atoms: _364  and  _365
REMARK  157  A    between atoms: _364  and  _367
REMARK  158  A    between atoms: _367  and  _368
REMARK  159  A    between atoms: _373  and  _375
REMARK  160  A    between atoms: _375  and  _376
REMARK  161  A    between atoms: _379  and  _381
REMARK  162  A    between atoms: _381  and  _382
REMARK  163  A    between atoms: _384  and  _386
REMARK  164  A    between atoms: _386  and  _387
REMARK  165  A    between atoms: _386  and  _389
REMARK  166  A    between atoms: _389  and  _390
REMARK  167  A    between atoms: _396  and  _398
REMARK  168  A    between atoms: _398  and  _399
REMARK  169  A    between atoms: _401  and  _403
REMARK  170  A    between atoms: _403  and  _404
REMARK  171  A    between atoms: _403  and  _406
REMARK  172  A    between atoms: _406  and  _407
REMARK  173  A    between atoms: _410  and  _412
REMARK  174  A    between atoms: _412  and  _413
REMARK  175  A    between atoms: _412  and  _415
REMARK  176  A    between atoms: _415  and  _416
REMARK  177  A    between atoms: _419  and  _421
REMARK  178  A    between atoms: _421  and  _422
REMARK  179  A    between atoms: _421  and  _424
REMARK  180  A    between atoms: _427  and  _429
REMARK  181  A    between atoms: _429  and  _430
REMARK  182  A    between atoms: _429  and  _432
REMARK  183  A    between atoms: _432  and  _433
REMARK  184  A    between atoms: _436  and  _438
REMARK  185  A    between atoms: _438  and  _439
REMARK  186  A    between atoms: _438  and  _441
REMARK  187  A    between atoms: _441  and  _442
REMARK  188  A    between atoms: _444  and  _446
REMARK  189  A    between atoms: _446  and  _447
REMARK  190  A    between atoms: _446  and  _449
REMARK  191  A    between atoms: _449  and  _450
REMARK  192  A    between atoms: _450  and  _451
REMARK  193  A    between atoms: _451  and  _452
REMARK  194  A    between atoms: _452  and  _453
REMARK  195  A    between atoms: _457  and  _459
REMARK  196  A    between atoms: _459  and  _460
REMARK  197  A    between atoms: _462  and  _464
REMARK  198  A    between atoms: _464  and  _465
REMARK  199  A    between atoms: _468  and  _470
REMARK  200  A    between atoms: _470  and  _471
REMARK  201  A    between atoms: _470  and  _473
REMARK  202  A    between atoms: _474  and  _475
REMARK  203  A    between atoms: _478  and  _480
REMARK  204  A    between atoms: _480  and  _481
REMARK  205  A    between atoms: _480  and  _483
REMARK  206  A    between atoms: _483  and  _484
REMARK  207  A    between atoms: _484  and  _485
REMARK  208  A    between atoms: _485  and  _486
REMARK  209  A    between atoms: _495  and  _497
REMARK  210  A    between atoms: _497  and  _498
REMARK  211  A    between atoms: _501  and  _503
REMARK  212  A    between atoms: _503  and  _504
REMARK  213  A    between atoms: _503  and  _506
REMARK  214  A    between atoms: _506  and  _507
REMARK  215  A    between atoms: _510  and  _512
REMARK  216  A    between atoms: _512  and  _513
REMARK  217  A    between atoms: _512  and  _515
REMARK  218  A    between atoms: _515  and  _516
REMARK  219  A    between atoms: _519  and  _521
REMARK  220  A    between atoms: _521  and  _522
REMARK  221  A    between atoms: _521  and  _524
REMARK  222  A    between atoms: _524  and  _525
REMARK  223  A    between atoms: _528  and  _530
REMARK  224  A    between atoms: _530  and  _531
REMARK  225  A    between atoms: _530  and  _533
REMARK  226  A    between atoms: _533  and  _534
REMARK  227  A    between atoms: _534  and  _535
REMARK  228  A    between atoms: _535  and  _536
REMARK  229  A    between atoms: _536  and  _537
REMARK  230  A    between atoms: _541  and  _543
REMARK  231  A    between atoms: _543  and  _544
REMARK  232  A    between atoms: _543  and  _546
REMARK  233  A    between atoms: _546  and  _547
REMARK  234  A    between atoms: _550  and  _552
REMARK  235  A    between atoms: _552  and  _553
REMARK  236  A    between atoms: _552  and  _555
REMARK  237  A    between atoms: _555  and  _556
REMARK  238  A    between atoms: _556  and  _557
REMARK  239  A    between atoms: _560  and  _561
REMARK  240  A    between atoms: _566  and  _568
REMARK  241  A    between atoms: _568  and  _569
REMARK  242  A    between atoms: _568  and  _571
REMARK  243  A    between atoms: _571  and  _572
REMARK  244  A    between atoms: _575  and  _577
REMARK  245  A    between atoms: _577  and  _578
REMARK  246  A    between atoms: _577  and  _580
REMARK  247  A    between atoms: _580  and  _581
REMARK  248  A    between atoms: _581  and  _582
REMARK  249  A    between atoms: _582  and  _583
REMARK  250  A    between atoms: _592  and  _594
REMARK  251  A    between atoms: _594  and  _595
REMARK  252  A    between atoms: _594  and  _597
REMARK  253  A    between atoms: _597  and  _598
REMARK  254  A    between atoms: _598  and  _599
REMARK  255  A    between atoms: _601  and  _603
REMARK  256  A    between atoms: _603  and  _604
REMARK  257  A    between atoms: _603  and  _606
REMARK  258  A    between atoms: _606  and  _607
REMARK                            x       y       z     vdW  Elec       q    Type
REMARK                         _______ _______ _______ _____ _____    ______ ____
ROOT
ATOM      1  CA  ILE A   1      47.206  21.572  72.088  0.00  0.00    +0.133 C 
ENDROOT
BRANCH   1   2
ATOM      2  N   ILE A   1      47.699  20.294  71.594  0.00  0.00    -0.239 NA
ATOM      3  H   ILE A   1      48.395  19.765  72.158  0.00  0.00    +0.142 HD
ENDBRANCH   1   2
BRANCH   1   4
ATOM      4  CB  ILE A   1      46.974  21.492  73.595  0.00  0.00    +0.023 C 
ATOM      5  CG2 ILE A   1      45.907  20.468  73.936  0.00  0.00    +0.002 C 
BRANCH   4   6
ATOM      6  CG1 ILE A   1      48.231  21.166  74.370  0.00  0.00    +0.002 C 
ATOM      7  CD1 ILE A   1      48.068  21.172  75.882  0.00  0.00    +0.000 C 
ENDBRANCH   4   6
ENDBRANCH   1   4
BRANCH   1   8
ATOM      8  C   ILE A   1      48.171  22.700  71.796  0.00  0.00    +0.224 C 
ATOM      9  O   ILE A   1      49.394  22.469  71.742  0.00  0.00    -0.287 OA
ENDBRANCH   1   8
TORSDOF 4
REMARK  Name = ../refined-set-2016/1fcy/1fcy_pocket.pdb
REMARK  258 active torsions:
REMARK  status: ('A' for Active; 'I' for Inactive)
REMARK    1  A    between atoms: _1  and  _3
REMARK    2  A    between atoms: _3  and  _4
REMARK    3  A    between atoms: _3  and  _6
REMARK    4  A    between atoms: _6  and  _7
REMARK    5  A    between atoms: _10  and  _12
REMARK    6  A    between atoms: _12  and  _13
REMARK    7  A    between atoms: _12  and  _15
REMARK    8  A    between atoms: _15  and  _16
REMARK    9  A    between atoms: _23  and  _24
REMARK   10  A    between atoms: _29  and  _31
REMARK   11  A    between atoms: _31  and  _32
REMARK   12  A    between atoms: _31  and  _34
REMARK   13  A    between atoms: _34  and  _35
REMARK   14  A    between atoms: _38  and  _40
REMARK   15  A    between atoms: _40  and  _41
REMARK   16  A    between atoms: _40  and  _43
REMARK   17  A    between atoms: _43  and  _44
REMARK   18  A    between atoms: _54  and  _56
REMARK   19  A    between atoms: _56  and  _57
REMARK   20  A    between atoms: _56  and  _59
REMARK   21  A    between atoms: _59  and  _60
REMARK   22  A    between atoms: _60  and  _61
REMARK   23  A    between atoms: _61  and  _62
REMARK   24  A    between atoms: _62  and  _63
REMARK   25  A    between atoms: _67  and  _69
REMARK   26  A    between atoms: _69  and  _70
REMARK   27  A    between atoms: _69  and  _72
REMARK   28  A    between atoms: _72  and  _73
REMARK   29  A    between atoms: _79  and  _81
REMARK   30  A    between atoms: _81  and  _82
REMARK   31  A    between atoms: _81  and  _84
REMARK   32  A    between atoms: _84  and  _85
REMARK   33  A    between atoms: _87  and  _89
REMARK   34  A    between atoms: _89  and  _90
REMARK   35  A    between atoms: _89  and  _92
REMARK   36  A    between atoms: _92  and  _93
REMARK   37  A    between atoms: _93  and  _94
REMARK   38  A    between atoms: _97  and  _99
REMARK   39  A    between atoms: _99  and  _100
REMARK   40  A    between atoms: _99  and  _102
REMARK   41  A    between atoms: _102  and  _103
REMARK   42  A    between atoms: _106  and  _108
REMARK   43  A    between atoms: _108  and  _109
REMARK   44  A    between atoms: _112  and  _114
REMARK   45  A    between atoms: _114  and  _115
REMARK   46  A    between atoms: _114  and  _117
REMARK   47  A    between atoms: _117  and  _118
REMARK   48  A    between atoms: _121  and  _123
REMARK   49  A    between atoms: _123  and  _124
REMARK   50  A    between atoms: _123  and  _126
REMARK   51  A    between atoms: _127  and  _128
REMARK   52  A    between atoms: _128  and  _129
REMARK   53  A    between atoms: _129  and  _130
REMARK   54  A    between atoms: _134  and  _136
REMARK   55  A    between atoms: _136  and  _137
REMARK   56  A    between atoms: _136  and  _139
REMARK   57  A    between atoms: _141  and  _143
REMARK   58  A    between atoms: _143  and  _144
REMARK   59  A    between atoms: _143  and  _146
REMARK   60  A    between atoms: _146  and  _147
REMARK   61  A    between atoms: _150  and  _152
REMARK   62  A    between atoms: _152  and  _153
REMARK   63  A    between atoms: _152  and  _155
REMARK   64  A    between atoms: _155  and  _156
REMARK   65  A    between atoms: _156  and  _157
REMARK   66  A    between atoms: _157  and  _158
REMARK   67  A    between atoms: _158  and  _159
REMARK   68  A    between atoms: _163  and  _165
REMARK   69  A    between atoms: _165  and  _166
REMARK   70  A    between atoms: _165  and  _168
REMARK   71  A    between atoms: _168  and  _169
REMARK   72  A    between atoms: _172  and  _174
REMARK   73  A    between atoms: _174  and  _175
REMARK   74  A    between atoms: _174  and  _177
REMARK   75  A    between atoms: _179  and  _181
REMARK   76  A    between atoms: _181  and  _182
REMARK   77  A    between atoms: _181  and  _184
REMARK   78  A    between atoms: _184  and  _185
REMARK   79  A    between atoms: _188  and  _190
REMARK   80  A    between atoms: _190  and  _191
REMARK   81  A    between atoms: _190  and  _193
REMARK   82  A    between atoms: _193  and  _194
REMARK   83  A    between atoms: _197  and  _199
REMARK   84  A    between atoms: _199  and  _200
REMARK   85  A    between atoms: _199  and  _202
REMARK   86  A    between atoms: _202  and  _203
REMARK   87  A    between atoms: _206  and  _208
REMARK   88  A    between atoms: _208  and  _209
REMARK   89  A    between atoms: _208  and  _211
REMARK   90  A    between atoms: _211  and  _212
REMARK   91  A    between atoms: _215  and  _217
REMARK   92  A    between atoms: _217  and  _218
REMARK   93  A    between atoms: _217  and  _220
REMARK   94  A    between atoms: _220  and  _221
REMARK   95  A    between atoms: _221  and  _222
REMARK   96  A    between atoms: _224  and  _226
REMARK   97  A    between atoms: _226  and  _227
REMARK   98  A    between atoms: _226  and  _229
REMARK   99  A    between atoms: _229  and  _230
REMARK  100  A    between atoms: _233  and  _235
REMARK  101  A    between atoms: _235  and  _236
REMARK  102  A    between atoms: _235  and  _238
REMARK  103  A    between atoms: _238  and  _239
REMARK  104  A    between atoms: _239  and  _240
REMARK  105  A    between atoms: _240  and  _241
REMARK  106  A    between atoms: _250  and  _252
REMARK  107  A    between atoms: _252  and  _253
REMARK  108  A    between atoms: _252  and  _255
REMARK  109  A    between atoms: _255  and  _256
REMARK  110  A    between atoms: _259  and  _261
REMARK  111  A    between atoms: _261  and  _262
REMARK  112  A    between atoms: _261  and  _264
REMARK  113  A    between atoms: _266  and  _268
REMARK  114  A    between atoms: _268  and  _269
REMARK  115  A    between atoms: _268  and  _271
REMARK  116  A    between atoms: _271  and  _272
REMARK  117  A    between atoms: _275  and  _277
REMARK  118  A    between atoms: _277  and  _278
REMARK  119  A    between atoms: _277  and  _280
REMARK  120  A    between atoms: _280  and  _281
REMARK  121  A    between atoms: _281  and  _282
REMARK  122  A    between atoms: _282  and  _283
REMARK  123  A    between atoms: _292  and  _294
REMARK  124  A    between atoms: _294  and  _295
REMARK  125  A    between atoms: _294  and  _297
REMARK  126  A    between atoms: _297  and  _298
REMARK  127  A    between atoms: _298  and  _299
REMARK  128  A    between atoms: _301  and  _303
REMARK  129  A    between atoms: _303  and  _304
REMARK  130  A    between atoms: _303  and  _306
REMARK  131  A    between atoms: _306  and  _307
REMARK  132  A    between atoms: _310  and  _312
REMARK  133  A    between atoms: _312  and  _313
REMARK  134  A    between atoms: _312  and  _315
REMARK  135  A    between atoms: _315  and  _316
REMARK  136  A    between atoms: _322  and  _324
REMARK  137  A    between atoms: _324  and  _325
REMARK  138  A    between atoms: _324  and  _327
REMARK  139  A    between atoms: _327  and  _328
REMARK  140  A    between atoms: _330  and  _332
REMARK  141  A    between atoms: _332  and  _333
REMARK  142  A    between atoms: _332  and  _335
REMARK  143  A    between atoms: _335  and  _336
REMARK  144  A    between atoms: _339  and  _341
REMARK  145  A    between atoms: _341  and  _342
REMARK  146  A    between atoms: _344  and  _346
REMARK  147  A    between atoms: _346  and  _347
REMARK  148  A    between atoms: _346  and  _349
REMARK  149  A    between atoms: _349  and  _350
REMARK  150  A    between atoms: _353  and  _355
REMARK  151  A    between atoms: _355  and  _356
REMARK  152  A    between atoms: _355  and  _358
REMARK  153  A    between atoms: _358  and  _359
REMARK  154  A    between atoms: _359  and  _360
REMARK  155  A    between atoms: _362  and  _364
REMARK  156  A    between atoms: _364  and  _365
REMARK  157  A    between atoms: _364  and  _367
REMARK  158  A    between atoms: _367  and  _368
REMARK  159  A    between atoms: _373  and  _375
REMARK  160  A    between atoms: _375  and  _376
REMARK  161  A    between atoms: _379  and  _381
REMARK  162  A    between atoms: _381  and  _382
REMARK  163  A    between atoms: _384  and  _386
REMARK  164  A    between atoms: _386  and  _387
REMARK  165  A    between atoms: _386  and  _389
REMARK  166  A    between atoms: _389  and  _390
REMARK  167  A    between atoms: _396  and  _398
REMARK  168  A    between atoms: _398  and  _399
REMARK  169  A    between atoms: _401  and  _403
REMARK  170  A    between atoms: _403  and  _404
REMARK  171  A    between atoms: _403  and  _406
REMARK  172  A    between atoms: _406  and  _407
REMARK  173  A    between atoms: _410  and  _412
REMARK  174  A    between atoms: _412  and  _413
REMARK  175  A    between atoms: _412  and  _415
REMARK  176  A    between atoms: _415  and  _416
REMARK  177  A    between atoms: _419  and  _421
REMARK  178  A    between atoms: _421  and  _422
REMARK  179  A    between atoms: _421  and  _424
REMARK  180  A    between atoms: _427  and  _429
REMARK  181  A    between atoms: _429  and  _430
REMARK  182  A    between atoms: _429  and  _432
REMARK  183  A    between atoms: _432  and  _433
REMARK  184  A    between atoms: _436  and  _438
REMARK  185  A    between atoms: _438  and  _439
REMARK  186  A    between atoms: _438  and  _441
REMARK  187  A    between atoms: _441  and  _442
REMARK  188  A    between atoms: _444  and  _446
REMARK  189  A    between atoms: _446  and  _447
REMARK  190  A    between atoms: _446  and  _449
REMARK  191  A    between atoms: _449  and  _450
REMARK  192  A    between atoms: _450  and  _451
REMARK  193  A    between atoms: _451  and  _452
REMARK  194  A    between atoms: _452  and  _453
REMARK  195  A    between atoms: _457  and  _459
REMARK  196  A    between atoms: _459  and  _460
REMARK  197  A    between atoms: _462  and  _464
REMARK  198  A    between atoms: _464  and  _465
REMARK  199  A    between atoms: _468  and  _470
REMARK  200  A    between atoms: _470  and  _471
REMARK  201  A    between atoms: _470  and  _473
REMARK  202  A    between atoms: _474  and  _475
REMARK  203  A    between atoms: _478  and  _480
REMARK  204  A    between atoms: _480  and  _481
REMARK  205  A    between atoms: _480  and  _483
REMARK  206  A    between atoms: _483  and  _484
REMARK  207  A    between atoms: _484  and  _485
REMARK  208  A    between atoms: _485  and  _486
REMARK  209  A    between atoms: _495  and  _497
REMARK  210  A    between atoms: _497  and  _498
REMARK  211  A    between atoms: _501  and  _503
REMARK  212  A    between atoms: _503  and  _504
REMARK  213  A    between atoms: _503  and  _506
REMARK  214  A    between atoms: _506  and  _507
REMARK  215  A    between atoms: _510  and  _512
REMARK  216  A    between atoms: _512  and  _513
REMARK  217  A    between atoms: _512  and  _515
REMARK  218  A    between atoms: _515  and  _516
REMARK  219  A    between atoms: _519  and  _521
REMARK  220  A    between atoms: _521  and  _522
REMARK  221  A    between atoms: _521  and  _524
REMARK  222  A    between atoms: _524  and  _525
REMARK  223  A    between atoms: _528  and  _530
REMARK  224  A    between atoms: _530  and  _531
REMARK  225  A    between atoms: _530  and  _533
REMARK  226  A    between atoms: _533  and  _534
REMARK  227  A    between atoms: _534  and  _535
REMARK  228  A    between atoms: _535  and  _536
REMARK  229  A    between atoms: _536  and  _537
REMARK  230  A    between atoms: _541  and  _543
REMARK  231  A    between atoms: _543  and  _544
REMARK  232  A    between atoms: _543  and  _546
REMARK  233  A    between atoms: _546  and  _547
REMARK  234  A    between atoms: _550  and  _552
REMARK  235  A    between atoms: _552  and  _553
REMARK  236  A    between atoms: _552  and  _555
REMARK  237  A    between atoms: _555  and  _556
REMARK  238  A    between atoms: _556  and  _557
REMARK  239  A    between atoms: _560  and  _561
REMARK  240  A    between atoms: _566  and  _568
REMARK  241  A    between atoms: _568  and  _569
REMARK  242  A    between atoms: _568  and  _571
REMARK  243  A    between atoms: _571  and  _572
REMARK  244  A    between atoms: _575  and  _577
REMARK  245  A    between atoms: _577  and  _578
REMARK  246  A    between atoms: _577  and  _580
REMARK  247  A    between atoms: _580  and  _581
REMARK  248  A    between atoms: _581  and  _582
REMARK  249  A    between atoms: _582  and  _583
REMARK  250  A    between atoms: _592  and  _594
REMARK  251  A    between atoms: _594  and  _595
REMARK  252  A    between atoms: _594  and  _597
REMARK  253  A    between atoms: _597  and  _598
REMARK  254  A    between atoms: _598  and  _599
REMARK  255  A    between atoms: _601  and  _603
REMARK  256  A    between atoms: _603  and  _604
REMARK  257  A    between atoms: _603  and  _606
REMARK  258  A    between atoms: _606  and  _607
REMARK                            x       y       z     vdW  Elec       q    Type
REMARK                         _______ _______ _______ _____ _____    ______ ____
ROOT
ATOM      1  C   MET A   1      48.750  23.388  81.229  0.00  0.00    +0.241 C 
ATOM      2  N   PRO A   2      47.606  23.615  81.863  0.00  0.00    -0.273 N 
ATOM      3  CA  PRO A   2      47.547  24.442  83.056  0.00  0.00    +0.140 C 
ATOM      4  CB  PRO A   2      46.079  24.297  83.495  0.00  0.00    +0.030 C 
ATOM      5  CG  PRO A   2      45.342  24.125  82.177  0.00  0.00    +0.024 C 
ATOM      6  CD  PRO A   2      46.260  23.214  81.391  0.00  0.00    +0.094 C 
ATOM      7  O   MET A   1      49.783  23.934  81.567  0.00  0.00    -0.273 OA
ENDROOT
BRANCH   3   8
ATOM      8  C   PRO A   2      48.527  23.964  84.120  0.00  0.00    +0.227 C 
ATOM      9  O   PRO A   2      48.818  22.783  84.269  0.00  0.00    -0.286 OA
ENDBRANCH   3   8
BRANCH   1  10
ATOM     10  CA  MET A   1      48.722  22.462  80.010  0.00  0.00    +0.146 C 
BRANCH  10  11
ATOM     11  N   MET A   1      49.841  22.749  79.148  0.00  0.00    -0.238 NA
ATOM     12  H   MET A   1      50.602  22.050  79.031  0.00  0.00    +0.142 HD
ENDBRANCH  10  11
BRANCH  10  13
ATOM     13  CB  MET A   1      48.838  21.001  80.433  0.00  0.00    +0.038 C 
BRANCH  13  14
ATOM     14  CG  MET A   1      48.523  20.041  79.331  0.00  0.00    +0.060 C 
BRANCH  14  15
ATOM     15  SD  MET A   1      48.396  18.353  79.931  0.00  0.00    -0.139 S 
ATOM     16  CE  MET A   1      47.905  17.572  78.426  0.00  0.00    +0.069 C 
ENDBRANCH  14  15
ENDBRANCH  13  14
ENDBRANCH  10  13
ENDBRANCH   1  10
TORSDOF 6
REMARK  Name = ../refined-set-2016/1fcy/1fcy_pocket.pdb
REMARK  258 active torsions:
REMARK  status: ('A' for Active; 'I' for Inactive)
REMARK    1  A    between atoms: _1  and  _3
REMARK    2  A    between atoms: _3  and  _4
REMARK    3  A    between atoms: _3  and  _6
REMARK    4  A    between atoms: _6  and  _7
REMARK    5  A    between atoms: _10  and  _12
REMARK    6  A    between atoms: _12  and  _13
REMARK    7  A    between atoms: _12  and  _15
REMARK    8  A    between atoms: _15  and  _16
REMARK    9  A    between atoms: _23  and  _24
REMARK   10  A    between atoms: _29  and  _31
REMARK   11  A    between atoms: _31  and  _32
REMARK   12  A    between atoms: _31  and  _34
REMARK   13  A    between atoms: _34  and  _35
REMARK   14  A    between atoms: _38  and  _40
REMARK   15  A    between atoms: _40  and  _41
REMARK   16  A    between atoms: _40  and  _43
REMARK   17  A    between atoms: _43  and  _44
REMARK   18  A    between atoms: _54  and  _56
REMARK   19  A    between atoms: _56  and  _57
REMARK   20  A    between atoms: _56  and  _59
REMARK   21  A    between atoms: _59  and  _60
REMARK   22  A    between atoms: _60  and  _61
REMARK   23  A    between atoms: _61  and  _62
REMARK   24  A    between atoms: _62  and  _63
REMARK   25  A    between atoms: _67  and  _69
REMARK   26  A    between atoms: _69  and  _70
REMARK   27  A    between atoms: _69  and  _72
REMARK   28  A    between atoms: _72  and  _73
REMARK   29  A    between atoms: _79  and  _81
REMARK   30  A    between atoms: _81  and  _82
REMARK   31  A    between atoms: _81  and  _84
REMARK   32  A    between atoms: _84  and  _85
REMARK   33  A    between atoms: _87  and  _89
REMARK   34  A    between atoms: _89  and  _90
REMARK   35  A    between atoms: _89  and  _92
REMARK   36  A    between atoms: _92  and  _93
REMARK   37  A    between atoms: _93  and  _94
REMARK   38  A    between atoms: _97  and  _99
REMARK   39  A    between atoms: _99  and  _100
REMARK   40  A    between atoms: _99  and  _102
REMARK   41  A    between atoms: _102  and  _103
REMARK   42  A    between atoms: _106  and  _108
REMARK   43  A    between atoms: _108  and  _109
REMARK   44  A    between atoms: _112  and  _114
REMARK   45  A    between atoms: _114  and  _115
REMARK   46  A    between atoms: _114  and  _117
REMARK   47  A    between atoms: _117  and  _118
REMARK   48  A    between atoms: _121  and  _123
REMARK   49  A    between atoms: _123  and  _124
REMARK   50  A    between atoms: _123  and  _126
REMARK   51  A    between atoms: _127  and  _128
REMARK   52  A    between atoms: _128  and  _129
REMARK   53  A    between atoms: _129  and  _130
REMARK   54  A    between atoms: _134  and  _136
REMARK   55  A    between atoms: _136  and  _137
REMARK   56  A    between atoms: _136  and  _139
REMARK   57  A    between atoms: _141  and  _143
REMARK   58  A    between atoms: _143  and  _144
REMARK   59  A    between atoms: _143  and  _146
REMARK   60  A    between atoms: _146  and  _147
REMARK   61  A    between atoms: _150  and  _152
REMARK   62  A    between atoms: _152  and  _153
REMARK   63  A    between atoms: _152  and  _155
REMARK   64  A    between atoms: _155  and  _156
REMARK   65  A    between atoms: _156  and  _157
REMARK   66  A    between atoms: _157  and  _158
REMARK   67  A    between atoms: _158  and  _159
REMARK   68  A    between atoms: _163  and  _165
REMARK   69  A    between atoms: _165  and  _166
REMARK   70  A    between atoms: _165  and  _168
REMARK   71  A    between atoms: _168  and  _169
REMARK   72  A    between atoms: _172  and  _174
REMARK   73  A    between atoms: _174  and  _175
REMARK   74  A    between atoms: _174  and  _177
REMARK   75  A    between atoms: _179  and  _181
REMARK   76  A    between atoms: _181  and  _182
REMARK   77  A    between atoms: _181  and  _184
REMARK   78  A    between atoms: _184  and  _185
REMARK   79  A    between atoms: _188  and  _190
REMARK   80  A    between atoms: _190  and  _191
REMARK   81  A    between atoms: _190  and  _193
REMARK   82  A    between atoms: _193  and  _194
REMARK   83  A    between atoms: _197  and  _199
REMARK   84  A    between atoms: _199  and  _200
REMARK   85  A    between atoms: _199  and  _202
REMARK   86  A    between atoms: _202  and  _203
REMARK   87  A    between atoms: _206  and  _208
REMARK   88  A    between atoms: _208  and  _209
REMARK   89  A    between atoms: _208  and  _211
REMARK   90  A    between atoms: _211  and  _212
REMARK   91  A    between atoms: _215  and  _217
REMARK   92  A    between atoms: _217  and  _218
REMARK   93  A    between atoms: _217  and  _220
REMARK   94  A    between atoms: _220  and  _221
REMARK   95  A    between atoms: _221  and  _222
REMARK   96  A    between atoms: _224  and  _226
REMARK   97  A    between atoms: _226  and  _227
REMARK   98  A    between atoms: _226  and  _229
REMARK   99  A    between atoms: _229  and  _230
REMARK  100  A    between atoms: _233  and  _235
REMARK  101  A    between atoms: _235  and  _236
REMARK  102  A    between atoms: _235  and  _238
REMARK  103  A    between atoms: _238  and  _239
REMARK  104  A    between atoms: _239  and  _240
REMARK  105  A    between atoms: _240  and  _241
REMARK  106  A    between atoms: _250  and  _252
REMARK  107  A    between atoms: _252  and  _253
REMARK  108  A    between atoms: _252  and  _255
REMARK  109  A    between atoms: _255  and  _256
REMARK  110  A    between atoms: _259  and  _261
REMARK  111  A    between atoms: _261  and  _262
REMARK  112  A    between atoms: _261  and  _264
REMARK  113  A    between atoms: _266  and  _268
REMARK  114  A    between atoms: _268  and  _269
REMARK  115  A    between atoms: _268  and  _271
REMARK  116  A    between atoms: _271  and  _272
REMARK  117  A    between atoms: _275  and  _277
REMARK  118  A    between atoms: _277  and  _278
REMARK  119  A    between atoms: _277  and  _280
REMARK  120  A    between atoms: _280  and  _281
REMARK  121  A    between atoms: _281  and  _282
REMARK  122  A    between atoms: _282  and  _283
REMARK  123  A    between atoms: _292  and  _294
REMARK  124  A    between atoms: _294  and  _295
REMARK  125  A    between atoms: _294  and  _297
REMARK  126  A    between atoms: _297  and  _298
REMARK  127  A    between atoms: _298  and  _299
REMARK  128  A    between atoms: _301  and  _303
REMARK  129  A    between atoms: _303  and  _304
REMARK  130  A    between atoms: _303  and  _306
REMARK  131  A    between atoms: _306  and  _307
REMARK  132  A    between atoms: _310  and  _312
REMARK  133  A    between atoms: _312  and  _313
REMARK  134  A    between atoms: _312  and  _315
REMARK  135  A    between atoms: _315  and  _316
REMARK  136  A    between atoms: _322  and  _324
REMARK  137  A    between atoms: _324  and  _325
REMARK  138  A    between atoms: _324  and  _327
REMARK  139  A    between atoms: _327  and  _328
REMARK  140  A    between atoms: _330  and  _332
REMARK  141  A    between atoms: _332  and  _333
REMARK  142  A    between atoms: _332  and  _335
REMARK  143  A    between atoms: _335  and  _336
REMARK  144  A    between atoms: _339  and  _341
REMARK  145  A    between atoms: _341  and  _342
REMARK  146  A    between atoms: _344  and  _346
REMARK  147  A    between atoms: _346  and  _347
REMARK  148  A    between atoms: _346  and  _349
REMARK  149  A    between atoms: _349  and  _350
REMARK  150  A    between atoms: _353  and  _355
REMARK  151  A    between atoms: _355  and  _356
REMARK  152  A    between atoms: _355  and  _358
REMARK  153  A    between atoms: _358  and  _359
REMARK  154  A    between atoms: _359  and  _360
REMARK  155  A    between atoms: _362  and  _364
REMARK  156  A    between atoms: _364  and  _365
REMARK  157  A    between atoms: _364  and  _367
REMARK  158  A    between atoms: _367  and  _368
REMARK  159  A    between atoms: _373  and  _375
REMARK  160  A    between atoms: _375  and  _376
REMARK  161  A    between atoms: _379  and  _381
REMARK  162  A    between atoms: _381  and  _382
REMARK  163  A    between atoms: _384  and  _386
REMARK  164  A    between atoms: _386  and  _387
REMARK  165  A    between atoms: _386  and  _389
REMARK  166  A    between atoms: _389  and  _390
REMARK  167  A    between atoms: _396  and  _398
REMARK  168  A    between atoms: _398  and  _399
REMARK  169  A    between atoms: _401  and  _403
REMARK  170  A    between atoms: _403  and  _404
REMARK  171  A    between atoms: _403  and  _406
REMARK  172  A    between atoms: _406  and  _407
REMARK  173  A    between atoms: _410  and  _412
REMARK  174  A    between atoms: _412  and  _413
REMARK  175  A    between atoms: _412  and  _415
REMARK  176  A    between atoms: _415  and  _416
REMARK  177  A    between atoms: _419  and  _421
REMARK  178  A    between atoms: _421  and  _422
REMARK  179  A    between atoms: _421  and  _424
REMARK  180  A    between atoms: _427  and  _429
REMARK  181  A    between atoms: _429  and  _430
REMARK  182  A    between atoms: _429  and  _432
REMARK  183  A    between atoms: _432  and  _433
REMARK  184  A    between atoms: _436  and  _438
REMARK  185  A    between atoms: _438  and  _439
REMARK  186  A    between atoms: _438  and  _441
REMARK  187  A    between atoms: _441  and  _442
REMARK  188  A    between atoms: _444  and  _446
REMARK  189  A    between atoms: _446  and  _447
REMARK  190  A    between atoms: _446  and  _449
REMARK  191  A    between atoms: _449  and  _450
REMARK  192  A    between atoms: _450  and  _451
REMARK  193  A    between atoms: _451  and  _452
REMARK  194  A    between atoms: _452  and  _453
REMARK  195  A    between atoms: _457  and  _459
REMARK  196  A    between atoms: _459  and  _460
REMARK  197  A    between atoms: _462  and  _464
REMARK  198  A    between atoms: _464  and  _465
REMARK  199  A    between atoms: _468  and  _470
REMARK  200  A    between atoms: _470  and  _471
REMARK  201  A    between atoms: _470  and  _473
REMARK  202  A    between atoms: _474  and  _475
REMARK  203  A    between atoms: _478  and  _480
REMARK  204  A    between atoms: _480  and  _481
REMARK  205  A    between atoms: _480  and  _483
REMARK  206  A    between atoms: _483  and  _484
REMARK  207  A    between atoms: _484  and  _485
REMARK  208  A    between atoms: _485  and  _486
REMARK  209  A    between atoms: _495  and  _497
REMARK  210  A    between atoms: _497  and  _498
REMARK  211  A    between atoms: _501  and  _503
REMARK  212  A    between atoms: _503  and  _504
REMARK  213  A    between atoms: _503  and  _506
REMARK  214  A    between atoms: _506  and  _507
REMARK  215  A    between atoms: _510  and  _512
REMARK  216  A    between atoms: _512  and  _513
REMARK  217  A    between atoms: _512  and  _515
REMARK  218  A    between atoms: _515  and  _516
REMARK  219  A    between atoms: _519  and  _521
REMARK  220  A    between atoms: _521  and  _522
REMARK  221  A    between atoms: _521  and  _524
REMARK  222  A    between atoms: _524  and  _525
REMARK  223  A    between atoms: _528  and  _530
REMARK  224  A    between atoms: _530  and  _531
REMARK  225  A    between atoms: _530  and  _533
REMARK  226  A    between atoms: _533  and  _534
REMARK  227  A    between atoms: _534  and  _535
REMARK  228  A    between atoms: _535  and  _536
REMARK  229  A    between atoms: _536  and  _537
REMARK  230  A    between atoms: _541  and  _543
REMARK  231  A    between atoms: _543  and  _544
REMARK  232  A    between atoms: _543  and  _546
REMARK  233  A    between atoms: _546  and  _547
REMARK  234  A    between atoms: _550  and  _552
REMARK  235  A    between atoms: _552  and  _553
REMARK  236  A    between atoms: _552  and  _555
REMARK  237  A    between atoms: _555  and  _556
REMARK  238  A    between atoms: _556  and  _557
REMARK  239  A    between atoms: _560  and  _561
REMARK  240  A    between atoms: _566  and  _568
REMARK  241  A    between atoms: _568  and  _569
REMARK  242  A    between atoms: _568  and  _571
REMARK  243  A    between atoms: _571  and  _572
REMARK  244  A    between atoms: _575  and  _577
REMARK  245  A    between atoms: _577  and  _578
REMARK  246  A    between atoms: _577  and  _580
REMARK  247  A    between atoms: _580  and  _581
REMARK  248  A    between atoms: _581  and  _582
REMARK  249  A    between atoms: _582  and  _583
REMARK  250  A    between atoms: _592  and  _594
REMARK  251  A    between atoms: _594  and  _595
REMARK  252  A    between atoms: _594  and  _597
REMARK  253  A    between atoms: _597  and  _598
REMARK  254  A    between atoms: _598  and  _599
REMARK  255  A    between atoms: _601  and  _603
REMARK  256  A    between atoms: _603  and  _604
REMARK  257  A    between atoms: _603  and  _606
REMARK  258  A    between atoms: _606  and  _607
REMARK                            x       y       z     vdW  Elec       q    Type
REMARK                         _______ _______ _______ _____ _____    ______ ____
ROOT
ATOM      1  CA  ARG A   2      51.532  19.876  85.083  0.00  0.00    +0.137 C 
ENDROOT
BRANCH   1   4
ATOM      2  C   ILE A   1      49.241  19.346  85.619  0.00  0.00    +0.238 C 
ATOM      3  O   ILE A   1      49.556  18.173  85.827  0.00  0.00    -0.274 OA
ATOM      4  N   ARG A   2      50.142  20.291  85.231  0.00  0.00    -0.298 N 
ATOM      5  H   ARG A   2      49.849  21.272  85.047  0.00  0.00    +0.150 HD
BRANCH   2   6
ATOM      6  CA  ILE A   1      47.807  19.796  85.801  0.00  0.00    +0.145 C 
BRANCH   6   7
ATOM      7  N   ILE A   1      47.803  21.073  86.532  0.00  0.00    -0.238 NA
ATOM      8  H   ILE A   1      47.465  21.933  86.055  0.00  0.00    +0.142 HD
ENDBRANCH   6   7
BRANCH   6   9
ATOM      9  CB  ILE A   1      47.007  19.905  84.504  0.00  0.00    +0.025 C 
ATOM     10  CG2 ILE A   1      47.270  18.697  83.624  0.00  0.00    +0.002 C 
BRANCH   9  11
ATOM     11  CG1 ILE A   1      45.509  20.073  84.811  0.00  0.00    +0.002 C 
ATOM     12  CD1 ILE A   1      44.657  20.468  83.587  0.00  0.00    +0.000 C 
ENDBRANCH   9  11
ENDBRANCH   6   9
ENDBRANCH   2   6
ENDBRANCH   1   4
BRANCH   1  13
ATOM     13  C   ARG A   2      52.103  19.410  86.414  0.00  0.00    +0.227 C 
ATOM     14  O   ARG A   2      52.876  18.463  86.469  0.00  0.00    -0.286 OA
ENDBRANCH   1  13
BRANCH   1  15
ATOM     15  CB  ARG A   2      52.365  21.010  84.486  0.00  0.00    +0.031 C 
BRANCH  15  16
ATOM     16  CG  ARG A   2      51.909  21.385  83.099  0.00  0.00    +0.045 C 
BRANCH  16  17
ATOM     17  CD  ARG A   2      52.597  22.630  82.549  0.00  0.00    +0.174 C 
BRANCH  17  18
ATOM     18  NE  ARG A   2      53.898  22.302  82.079  0.00  0.00    -0.265 N 
ATOM     19  HE  ARG A   2      54.180  21.301  82.100  0.00  0.00    +0.259 HD
ATOM     20  CZ  ARG A   2      54.786  23.188  81.611  0.00  0.00    +0.342 C 
ATOM     21  NH2 ARG A   2      54.488  24.492  81.614  0.00  0.00    -0.292 N 
ATOM     22 HH21 ARG A   2      53.569  24.815  81.979  0.00  0.00    +0.255 HD
ATOM     23 HH22 ARG A   2      55.175  25.183  81.251  0.00  0.00    +0.255 HD
ATOM     24  NH1 ARG A   2      55.959  22.754  81.185  0.00  0.00    -0.292 N 
ATOM     25 HH11 ARG A   2      56.180  21.738  81.216  0.00  0.00    +0.255 HD
ATOM     26 HH12 ARG A   2      56.661  23.428  80.818  0.00  0.00    +0.255 HD
ENDBRANCH  17  18
ENDBRANCH  16  17
ENDBRANCH  15  16
ENDBRANCH   1  15
TORSDOF 10
REMARK  Name = ../refined-set-2016/1fcy/1fcy_pocket.pdb
REMARK  258 active torsions:
REMARK  status: ('A' for Active; 'I' for Inactive)
REMARK    1  A    between atoms: _1  and  _3
REMARK    2  A    between atoms: _3  and  _4
REMARK    3  A    between atoms: _3  and  _6
REMARK    4  A    between atoms: _6  and  _7
REMARK    5  A    between atoms: _10  and  _12
REMARK    6  A    between atoms: _12  and  _13
REMARK    7  A    between atoms: _12  and  _15
REMARK    8  A    between atoms: _15  and  _16
REMARK    9  A    between atoms: _23  and  _24
REMARK   10  A    between atoms: _29  and  _31
REMARK   11  A    between atoms: _31  and  _32
REMARK   12  A    between atoms: _31  and  _34
REMARK   13  A    between atoms: _34  and  _35
REMARK   14  A    between atoms: _38  and  _40
REMARK   15  A    between atoms: _40  and  _41
REMARK   16  A    between atoms: _40  and  _43
REMARK   17  A    between atoms: _43  and  _44
REMARK   18  A    between atoms: _54  and  _56
REMARK   19  A    between atoms: _56  and  _57
REMARK   20  A    between atoms: _56  and  _59
REMARK   21  A    between atoms: _59  and  _60
REMARK   22  A    between atoms: _60  and  _61
REMARK   23  A    between atoms: _61  and  _62
REMARK   24  A    between atoms: _62  and  _63
REMARK   25  A    between atoms: _67  and  _69
REMARK   26  A    between atoms: _69  and  _70
REMARK   27  A    between atoms: _69  and  _72
REMARK   28  A    between atoms: _72  and  _73
REMARK   29  A    between atoms: _79  and  _81
REMARK   30  A    between atoms: _81  and  _82
REMARK   31  A    between atoms: _81  and  _84
REMARK   32  A    between atoms: _84  and  _85
REMARK   33  A    between atoms: _87  and  _89
REMARK   34  A    between atoms: _89  and  _90
REMARK   35  A    between atoms: _89  and  _92
REMARK   36  A    between atoms: _92  and  _93
REMARK   37  A    between atoms: _93  and  _94
REMARK   38  A    between atoms: _97  and  _99
REMARK   39  A    between atoms: _99  and  _100
REMARK   40  A    between atoms: _99  and  _102
REMARK   41  A    between atoms: _102  and  _103
REMARK   42  A    between atoms: _106  and  _108
REMARK   43  A    between atoms: _108  and  _109
REMARK   44  A    between atoms: _112  and  _114
REMARK   45  A    between atoms: _114  and  _115
REMARK   46  A    between atoms: _114  and  _117
REMARK   47  A    between atoms: _117  and  _118
REMARK   48  A    between atoms: _121  and  _123
REMARK   49  A    between atoms: _123  and  _124
REMARK   50  A    between atoms: _123  and  _126
REMARK   51  A    between atoms: _127  and  _128
REMARK   52  A    between atoms: _128  and  _129
REMARK   53  A    between atoms: _129  and  _130
REMARK   54  A    between atoms: _134  and  _136
REMARK   55  A    between atoms: _136  and  _137
REMARK   56  A    between atoms: _136  and  _139
REMARK   57  A    between atoms: _141  and  _143
REMARK   58  A    between atoms: _143  and  _144
REMARK   59  A    between atoms: _143  and  _146
REMARK   60  A    between atoms: _146  and  _147
REMARK   61  A    between atoms: _150  and  _152
REMARK   62  A    between atoms: _152  and  _153
REMARK   63  A    between atoms: _152  and  _155
REMARK   64  A    between atoms: _155  and  _156
REMARK   65  A    between atoms: _156  and  _157
REMARK   66  A    between atoms: _157  and  _158
REMARK   67  A    between atoms: _158  and  _159
REMARK   68  A    between atoms: _163  and  _165
REMARK   69  A    between atoms: _165  and  _166
REMARK   70  A    between atoms: _165  and  _168
REMARK   71  A    between atoms: _168  and  _169
REMARK   72  A    between atoms: _172  and  _174
REMARK   73  A    between atoms: _174  and  _175
REMARK   74  A    between atoms: _174  and  _177
REMARK   75  A    between atoms: _179  and  _181
REMARK   76  A    between atoms: _181  and  _182
REMARK   77  A    between atoms: _181  and  _184
REMARK   78  A    between atoms: _184  and  _185
REMARK   79  A    between atoms: _188  and  _190
REMARK   80  A    between atoms: _190  and  _191
REMARK   81  A    between atoms: _190  and  _193
REMARK   82  A    between atoms: _193  and  _194
REMARK   83  A    between atoms: _197  and  _199
REMARK   84  A    between atoms: _199  and  _200
REMARK   85  A    between atoms: _199  and  _202
REMARK   86  A    between atoms: _202  and  _203
REMARK   87  A    between atoms: _206  and  _208
REMARK   88  A    between atoms: _208  and  _209
REMARK   89  A    between atoms: _208  and  _211
REMARK   90  A    between atoms: _211  and  _212
REMARK   91  A    between atoms: _215  and  _217
REMARK   92  A    between atoms: _217  and  _218
REMARK   93  A    between atoms: _217  and  _220
REMARK   94  A    between atoms: _220  and  _221
REMARK   95  A    between atoms: _221  and  _222
REMARK   96  A    between atoms: _224  and  _226
REMARK   97  A    between atoms: _226  and  _227
REMARK   98  A    between atoms: _226  and  _229
REMARK   99  A    between atoms: _229  and  _230
REMARK  100  A    between atoms: _233  and  _235
REMARK  101  A    between atoms: _235  and  _236
REMARK  102  A    between atoms: _235  and  _238
REMARK  103  A    between atoms: _238  and  _239
REMARK  104  A    between atoms: _239  and  _240
REMARK  105  A    between atoms: _240  and  _241
REMARK  106  A    between atoms: _250  and  _252
REMARK  107  A    between atoms: _252  and  _253
REMARK  108  A    between atoms: _252  and  _255
REMARK  109  A    between atoms: _255  and  _256
REMARK  110  A    between atoms: _259  and  _261
REMARK  111  A    between atoms: _261  and  _262
REMARK  112  A    between atoms: _261  and  _264
REMARK  113  A    between atoms: _266  and  _268
REMARK  114  A    between atoms: _268  and  _269
REMARK  115  A    between atoms: _268  and  _271
REMARK  116  A    between atoms: _271  and  _272
REMARK  117  A    between atoms: _275  and  _277
REMARK  118  A    between atoms: _277  and  _278
REMARK  119  A    between atoms: _277  and  _280
REMARK  120  A    between atoms: _280  and  _281
REMARK  121  A    between atoms: _281  and  _282
REMARK  122  A    between atoms: _282  and  _283
REMARK  123  A    between atoms: _292  and  _294
REMARK  124  A    between atoms: _294  and  _295
REMARK  125  A    between atoms: _294  and  _297
REMARK  126  A    between atoms: _297  and  _298
REMARK  127  A    between atoms: _298  and  _299
REMARK  128  A    between atoms: _301  and  _303
REMARK  129  A    between atoms: _303  and  _304
REMARK  130  A    between atoms: _303  and  _306
REMARK  131  A    between atoms: _306  and  _307
REMARK  132  A    between atoms: _310  and  _312
REMARK  133  A    between atoms: _312  and  _313
REMARK  134  A    between atoms: _312  and  _315
REMARK  135  A    between atoms: _315  and  _316
REMARK  136  A    between atoms: _322  and  _324
REMARK  137  A    between atoms: _324  and  _325
REMARK  138  A    between atoms: _324  and  _327
REMARK  139  A    between atoms: _327  and  _328
REMARK  140  A    between atoms: _330  and  _332
REMARK  141  A    between atoms: _332  and  _333
REMARK  142  A    between atoms: _332  and  _335
REMARK  143  A    between atoms: _335  and  _336
REMARK  144  A    between atoms: _339  and  _341
REMARK  145  A    between atoms: _341  and  _342
REMARK  146  A    between atoms: _344  and  _346
REMARK  147  A    between atoms: _346  and  _347
REMARK  148  A    between atoms: _346  and  _349
REMARK  149  A    between atoms: _349  and  _350
REMARK  150  A    between atoms: _353  and  _355
REMARK  151  A    between atoms: _355  and  _356
REMARK  152  A    between atoms: _355  and  _358
REMARK  153  A    between atoms: _358  and  _359
REMARK  154  A    between atoms: _359  and  _360
REMARK  155  A    between atoms: _362  and  _364
REMARK  156  A    between atoms: _364  and  _365
REMARK  157  A    between atoms: _364  and  _367
REMARK  158  A    between atoms: _367  and  _368
REMARK  159  A    between atoms: _373  and  _375
REMARK  160  A    between atoms: _375  and  _376
REMARK  161  A    between atoms: _379  and  _381
REMARK  162  A    between atoms: _381  and  _382
REMARK  163  A    between atoms: _384  and  _386
REMARK  164  A    between atoms: _386  and  _387
REMARK  165  A    between atoms: _386  and  _389
REMARK  166  A    between atoms: _389  and  _390
REMARK  167  A    between atoms: _396  and  _398
REMARK  168  A    between atoms: _398  and  _399
REMARK  169  A    between atoms: _401  and  _403
REMARK  170  A    between atoms: _403  and  _404
REMARK  171  A    between atoms: _403  and  _406
REMARK  172  A    between atoms: _406  and  _407
REMARK  173  A    between atoms: _410  and  _412
REMARK  174  A    between atoms: _412  and  _413
REMARK  175  A    between atoms: _412  and  _415
REMARK  176  A    between atoms: _415  and  _416
REMARK  177  A    between atoms: _419  and  _421
REMARK  178  A    between atoms: _421  and  _422
REMARK  179  A    between atoms: _421  and  _424
REMARK  180  A    between atoms: _427  and  _429
REMARK  181  A    between atoms: _429  and  _430
REMARK  182  A    between atoms: _429  and  _432
REMARK  183  A    between atoms: _432  and  _433
REMARK  184  A    between atoms: _436  and  _438
REMARK  185  A    between atoms: _438  and  _439
REMARK  186  A    between atoms: _438  and  _441
REMARK  187  A    between atoms: _441  and  _442
REMARK  188  A    between atoms: _444  and  _446
REMARK  189  A    between atoms: _446  and  _447
REMARK  190  A    between atoms: _446  and  _449
REMARK  191  A    between atoms: _449  and  _450
REMARK  192  A    between atoms: _450  and  _451
REMARK  193  A    between atoms: _451  and  _452
REMARK  194  A    between atoms: _452  and  _453
REMARK  195  A    between atoms: _457  and  _459
REMARK  196  A    between atoms: _459  and  _460
REMARK  197  A    between atoms: _462  and  _464
REMARK  198  A    between atoms: _464  and  _465
REMARK  199  A    between atoms: _468  and  _470
REMARK  200  A    between atoms: _470  and  _471
REMARK  201  A    between atoms: _470  and  _473
REMARK  202  A    between atoms: _474  and  _475
REMARK  203  A    between atoms: _478  and  _480
REMARK  204  A    between atoms: _480  and  _481
REMARK  205  A    between atoms: _480  and  _483
REMARK  206  A    between atoms: _483  and  _484
REMARK  207  A    between atoms: _484  and  _485
REMARK  208  A    between atoms: _485  and  _486
REMARK  209  A    between atoms: _495  and  _497
REMARK  210  A    between atoms: _497  and  _498
REMARK  211  A    between atoms: _501  and  _503
REMARK  212  A    between atoms: _503  and  _504
REMARK  213  A    between atoms: _503  and  _506
REMARK  214  A    between atoms: _506  and  _507
REMARK  215  A    between atoms: _510  and  _512
REMARK  216  A    between atoms: _512  and  _513
REMARK  217  A    between atoms: _512  and  _515
REMARK  218  A    between atoms: _515  and  _516
REMARK  219  A    between atoms: _519  and  _521
REMARK  220  A    between atoms: _521  and  _522
REMARK  221  A    between atoms: _521  and  _524
REMARK  222  A    between atoms: _524  and  _525
REMARK  223  A    between atoms: _528  and  _530
REMARK  224  A    between atoms: _530  and  _531
REMARK  225  A    between atoms: _530  and  _533
REMARK  226  A    between atoms: _533  and  _534
REMARK  227  A    between atoms: _534  and  _535
REMARK  228  A    between atoms: _535  and  _536
REMARK  229  A    between atoms: _536  and  _537
REMARK  230  A    between atoms: _541  and  _543
REMARK  231  A    between atoms: _543  and  _544
REMARK  232  A    between atoms: _543  and  _546
REMARK  233  A    between atoms: _546  and  _547
REMARK  234  A    between atoms: _550  and  _552
REMARK  235  A    between atoms: _552  and  _553
REMARK  236  A    between atoms: _552  and  _555
REMARK  237  A    between atoms: _555  and  _556
REMARK  238  A    between atoms: _556  and  _557
REMARK  239  A    between atoms: _560  and  _561
REMARK  240  A    between atoms: _566  and  _568
REMARK  241  A    between atoms: _568  and  _569
REMARK  242  A    between atoms: _568  and  _571
REMARK  243  A    between atoms: _571  and  _572
REMARK  244  A    between atoms: _575  and  _577
REMARK  245  A    between atoms: _577  and  _578
REMARK  246  A    between atoms: _577  and  _580
REMARK  247  A    between atoms: _580  and  _581
REMARK  248  A    between atoms: _581  and  _582
REMARK  249  A    between atoms: _582  and  _583
REMARK  250  A    between atoms: _592  and  _594
REMARK  251  A    between atoms: _594  and  _595
REMARK  252  A    between atoms: _594  and  _597
REMARK  253  A    between atoms: _597  and  _598
REMARK  254  A    between atoms: _598  and  _599
REMARK  255  A    between atoms: _601  and  _603
REMARK  256  A    between atoms: _603  and  _604
REMARK  257  A    between atoms: _603  and  _606
REMARK  258  A    between atoms: _606  and  _607
REMARK                            x       y       z     vdW  Elec       q    Type
REMARK                         _______ _______ _______ _____ _____    ______ ____
ROOT
ATOM      1  C   MET A   1      50.743  15.455  88.157  0.00  0.00    +0.238 C 
ATOM      2  O   MET A   1      50.963  14.322  88.592  0.00  0.00    -0.274 OA
ATOM      3  N   LEU A   2      51.105  15.821  86.911  0.00  0.00    -0.298 N 
ATOM      4  H   LEU A   2      50.917  16.799  86.610  0.00  0.00    +0.150 HD
ENDROOT
BRANCH   1   5
ATOM      5  CA  MET A   1      50.007  16.504  88.959  0.00  0.00    +0.146 C 
BRANCH   5   6
ATOM      6  N   MET A   1      50.550  17.834  88.740  0.00  0.00    -0.238 NA
ATOM      7  H   MET A   1      49.957  18.552  88.277  0.00  0.00    +0.142 HD
ENDBRANCH   5   6
BRANCH   5   8
ATOM      8  CB  MET A   1      48.506  16.578  88.579  0.00  0.00    +0.038 C 
BRANCH   8   9
ATOM      9  CG  MET A   1      47.838  15.229  88.557  0.00  0.00    +0.060 C 
BRANCH   9  10
ATOM     10  SD  MET A   1      46.077  15.364  88.261  0.00  0.00    -0.139 S 
ATOM     11  CE  MET A   1      46.084  15.754  86.493  0.00  0.00    +0.069 C 
ENDBRANCH   9  10
ENDBRANCH   8   9
ENDBRANCH   5   8
ENDBRANCH   1   5
BRANCH   3  12
ATOM     12  CA  LEU A   2      51.745  14.920  85.966  0.00  0.00    +0.137 C 
BRANCH  12  13
ATOM     13  C   LEU A   2      53.206  14.671  86.189  0.00  0.00    +0.227 C 
ATOM     14  O   LEU A   2      53.761  13.688  85.717  0.00  0.00    -0.286 OA
ENDBRANCH  12  13
BRANCH  12  15
ATOM     15  CB  LEU A   2      51.530  15.423  84.520  0.00  0.00    +0.028 C 
BRANCH  15  16
ATOM     16  CG  LEU A   2      50.084  15.392  84.035  0.00  0.00    +0.002 C 
ATOM     17  CD2 LEU A   2      49.549  13.947  83.969  0.00  0.00    +0.000 C 
ATOM     18  CD1 LEU A   2      50.009  16.085  82.680  0.00  0.00    +0.000 C 
ENDBRANCH  15  16
ENDBRANCH  12  15
ENDBRANCH   3  12
TORSDOF 9
REMARK  Name = ../refined-set-2016/1fcy/1fcy_pocket.pdb
REMARK  258 active torsions:
REMARK  status: ('A' for Active; 'I' for Inactive)
REMARK    1  A    between atoms: _1  and  _3
REMARK    2  A    between atoms: _3  and  _4
REMARK    3  A    between atoms: _3  and  _6
REMARK    4  A    between atoms: _6  and  _7
REMARK    5  A    between atoms: _10  and  _12
REMARK    6  A    between atoms: _12  and  _13
REMARK    7  A    between atoms: _12  and  _15
REMARK    8  A    between atoms: _15  and  _16
REMARK    9  A    between atoms: _23  and  _24
REMARK   10  A    between atoms: _29  and  _31
REMARK   11  A    between atoms: _31  and  _32
REMARK   12  A    between atoms: _31  and  _34
REMARK   13  A    between atoms: _34  and  _35
REMARK   14  A    between atoms: _38  and  _40
REMARK   15  A    between atoms: _40  and  _41
REMARK   16  A    between atoms: _40  and  _43
REMARK   17  A    between atoms: _43  and  _44
REMARK   18  A    between atoms: _54  and  _56
REMARK   19  A    between atoms: _56  and  _57
REMARK   20  A    between atoms: _56  and  _59
REMARK   21  A    between atoms: _59  and  _60
REMARK   22  A    between atoms: _60  and  _61
REMARK   23  A    between atoms: _61  and  _62
REMARK   24  A    between atoms: _62  and  _63
REMARK   25  A    between atoms: _67  and  _69
REMARK   26  A    between atoms: _69  and  _70
REMARK   27  A    between atoms: _69  and  _72
REMARK   28  A    between atoms: _72  and  _73
REMARK   29  A    between atoms: _79  and  _81
REMARK   30  A    between atoms: _81  and  _82
REMARK   31  A    between atoms: _81  and  _84
REMARK   32  A    between atoms: _84  and  _85
REMARK   33  A    between atoms: _87  and  _89
REMARK   34  A    between atoms: _89  and  _90
REMARK   35  A    between atoms: _89  and  _92
REMARK   36  A    between atoms: _92  and  _93
REMARK   37  A    between atoms: _93  and  _94
REMARK   38  A    between atoms: _97  and  _99
REMARK   39  A    between atoms: _99  and  _100
REMARK   40  A    between atoms: _99  and  _102
REMARK   41  A    between atoms: _102  and  _103
REMARK   42  A    between atoms: _106  and  _108
REMARK   43  A    between atoms: _108  and  _109
REMARK   44  A    between atoms: _112  and  _114
REMARK   45  A    between atoms: _114  and  _115
REMARK   46  A    between atoms: _114  and  _117
REMARK   47  A    between atoms: _117  and  _118
REMARK   48  A    between atoms: _121  and  _123
REMARK   49  A    between atoms: _123  and  _124
REMARK   50  A    between atoms: _123  and  _126
REMARK   51  A    between atoms: _127  and  _128
REMARK   52  A    between atoms: _128  and  _129
REMARK   53  A    between atoms: _129  and  _130
REMARK   54  A    between atoms: _134  and  _136
REMARK   55  A    between atoms: _136  and  _137
REMARK   56  A    between atoms: _136  and  _139
REMARK   57  A    between atoms: _141  and  _143
REMARK   58  A    between atoms: _143  and  _144
REMARK   59  A    between atoms: _143  and  _146
REMARK   60  A    between atoms: _146  and  _147
REMARK   61  A    between atoms: _150  and  _152
REMARK   62  A    between atoms: _152  and  _153
REMARK   63  A    between atoms: _152  and  _155
REMARK   64  A    between atoms: _155  and  _156
REMARK   65  A    between atoms: _156  and  _157
REMARK   66  A    between atoms: _157  and  _158
REMARK   67  A    between atoms: _158  and  _159
REMARK   68  A    between atoms: _163  and  _165
REMARK   69  A    between atoms: _165  and  _166
REMARK   70  A    between atoms: _165  and  _168
REMARK   71  A    between atoms: _168  and  _169
REMARK   72  A    between atoms: _172  and  _174
REMARK   73  A    between atoms: _174  and  _175
REMARK   74  A    between atoms: _174  and  _177
REMARK   75  A    between atoms: _179  and  _181
REMARK   76  A    between atoms: _181  and  _182
REMARK   77  A    between atoms: _181  and  _184
REMARK   78  A    between atoms: _184  and  _185
REMARK   79  A    between atoms: _188  and  _190
REMARK   80  A    between atoms: _190  and  _191
REMARK   81  A    between atoms: _190  and  _193
REMARK   82  A    between atoms: _193  and  _194
REMARK   83  A    between atoms: _197  and  _199
REMARK   84  A    between atoms: _199  and  _200
REMARK   85  A    between atoms: _199  and  _202
REMARK   86  A    between atoms: _202  and  _203
REMARK   87  A    between atoms: _206  and  _208
REMARK   88  A    between atoms: _208  and  _209
REMARK   89  A    between atoms: _208  and  _211
REMARK   90  A    between atoms: _211  and  _212
REMARK   91  A    between atoms: _215  and  _217
REMARK   92  A    between atoms: _217  and  _218
REMARK   93  A    between atoms: _217  and  _220
REMARK   94  A    between atoms: _220  and  _221
REMARK   95  A    between atoms: _221  and  _222
REMARK   96  A    between atoms: _224  and  _226
REMARK   97  A    between atoms: _226  and  _227
REMARK   98  A    between atoms: _226  and  _229
REMARK   99  A    between atoms: _229  and  _230
REMARK  100  A    between atoms: _233  and  _235
REMARK  101  A    between atoms: _235  and  _236
REMARK  102  A    between atoms: _235  and  _238
REMARK  103  A    between atoms: _238  and  _239
REMARK  104  A    between atoms: _239  and  _240
REMARK  105  A    between atoms: _240  and  _241
REMARK  106  A    between atoms: _250  and  _252
REMARK  107  A    between atoms: _252  and  _253
REMARK  108  A    between atoms: _252  and  _255
REMARK  109  A    between atoms: _255  and  _256
REMARK  110  A    between atoms: _259  and  _261
REMARK  111  A    between atoms: _261  and  _262
REMARK  112  A    between atoms: _261  and  _264
REMARK  113  A    between atoms: _266  and  _268
REMARK  114  A    between atoms: _268  and  _269
REMARK  115  A    between atoms: _268  and  _271
REMARK  116  A    between atoms: _271  and  _272
REMARK  117  A    between atoms: _275  and  _277
REMARK  118  A    between atoms: _277  and  _278
REMARK  119  A    between atoms: _277  and  _280
REMARK  120  A    between atoms: _280  and  _281
REMARK  121  A    between atoms: _281  and  _282
REMARK  122  A    between atoms: _282  and  _283
REMARK  123  A    between atoms: _292  and  _294
REMARK  124  A    between atoms: _294  and  _295
REMARK  125  A    between atoms: _294  and  _297
REMARK  126  A    between atoms: _297  and  _298
REMARK  127  A    between atoms: _298  and  _299
REMARK  128  A    between atoms: _301  and  _303
REMARK  129  A    between atoms: _303  and  _304
REMARK  130  A    between atoms: _303  and  _306
REMARK  131  A    between atoms: _306  and  _307
REMARK  132  A    between atoms: _310  and  _312
REMARK  133  A    between atoms: _312  and  _313
REMARK  134  A    between atoms: _312  and  _315
REMARK  135  A    between atoms: _315  and  _316
REMARK  136  A    between atoms: _322  and  _324
REMARK  137  A    between atoms: _324  and  _325
REMARK  138  A    between atoms: _324  and  _327
REMARK  139  A    between atoms: _327  and  _328
REMARK  140  A    between atoms: _330  and  _332
REMARK  141  A    between atoms: _332  and  _333
REMARK  142  A    between atoms: _332  and  _335
REMARK  143  A    between atoms: _335  and  _336
REMARK  144  A    between atoms: _339  and  _341
REMARK  145  A    between atoms: _341  and  _342
REMARK  146  A    between atoms: _344  and  _346
REMARK  147  A    between atoms: _346  and  _347
REMARK  148  A    between atoms: _346  and  _349
REMARK  149  A    between atoms: _349  and  _350
REMARK  150  A    between atoms: _353  and  _355
REMARK  151  A    between atoms: _355  and  _356
REMARK  152  A    between atoms: _355  and  _358
REMARK  153  A    between atoms: _358  and  _359
REMARK  154  A    between atoms: _359  and  _360
REMARK  155  A    between atoms: _362  and  _364
REMARK  156  A    between atoms: _364  and  _365
REMARK  157  A    between atoms: _364  and  _367
REMARK  158  A    between atoms: _367  and  _368
REMARK  159  A    between atoms: _373  and  _375
REMARK  160  A    between atoms: _375  and  _376
REMARK  161  A    between atoms: _379  and  _381
REMARK  162  A    between atoms: _381  and  _382
REMARK  163  A    between atoms: _384  and  _386
REMARK  164  A    between atoms: _386  and  _387
REMARK  165  A    between atoms: _386  and  _389
REMARK  166  A    between atoms: _389  and  _390
REMARK  167  A    between atoms: _396  and  _398
REMARK  168  A    between atoms: _398  and  _399
REMARK  169  A    between atoms: _401  and  _403
REMARK  170  A    between atoms: _403  and  _404
REMARK  171  A    between atoms: _403  and  _406
REMARK  172  A    between atoms: _406  and  _407
REMARK  173  A    between atoms: _410  and  _412
REMARK  174  A    between atoms: _412  and  _413
REMARK  175  A    between atoms: _412  and  _415
REMARK  176  A    between atoms: _415  and  _416
REMARK  177  A    between atoms: _419  and  _421
REMARK  178  A    between atoms: _421  and  _422
REMARK  179  A    between atoms: _421  and  _424
REMARK  180  A    between atoms: _427  and  _429
REMARK  181  A    between atoms: _429  and  _430
REMARK  182  A    between atoms: _429  and  _432
REMARK  183  A    between atoms: _432  and  _433
REMARK  184  A    between atoms: _436  and  _438
REMARK  185  A    between atoms: _438  and  _439
REMARK  186  A    between atoms: _438  and  _441
REMARK  187  A    between atoms: _441  and  _442
REMARK  188  A    between atoms: _444  and  _446
REMARK  189  A    between atoms: _446  and  _447
REMARK  190  A    between atoms: _446  and  _449
REMARK  191  A    between atoms: _449  and  _450
REMARK  192  A    between atoms: _450  and  _451
REMARK  193  A    between atoms: _451  and  _452
REMARK  194  A    between atoms: _452  and  _453
REMARK  195  A    between atoms: _457  and  _459
REMARK  196  A    between atoms: _459  and  _460
REMARK  197  A    between atoms: _462  and  _464
REMARK  198  A    between atoms: _464  and  _465
REMARK  199  A    between atoms: _468  and  _470
REMARK  200  A    between atoms: _470  and  _471
REMARK  201  A    between atoms: _470  and  _473
REMARK  202  A    between atoms: _474  and  _475
REMARK  203  A    between atoms: _478  and  _480
REMARK  204  A    between atoms: _480  and  _481
REMARK  205  A    between atoms: _480  and  _483
REMARK  206  A    between atoms: _483  and  _484
REMARK  207  A    between atoms: _484  and  _485
REMARK  208  A    between atoms: _485  and  _486
REMARK  209  A    between atoms: _495  and  _497
REMARK  210  A    between atoms: _497  and  _498
REMARK  211  A    between atoms: _501  and  _503
REMARK  212  A    between atoms: _503  and  _504
REMARK  213  A    between atoms: _503  and  _506
REMARK  214  A    between atoms: _506  and  _507
REMARK  215  A    between atoms: _510  and  _512
REMARK  216  A    between atoms: _512  and  _513
REMARK  217  A    between atoms: _512  and  _515
REMARK  218  A    between atoms: _515  and  _516
REMARK  219  A    between atoms: _519  and  _521
REMARK  220  A    between atoms: _521  and  _522
REMARK  221  A    between atoms: _521  and  _524
REMARK  222  A    between atoms: _524  and  _525
REMARK  223  A    between atoms: _528  and  _530
REMARK  224  A    between atoms: _530  and  _531
REMARK  225  A    between atoms: _530  and  _533
REMARK  226  A    between atoms: _533  and  _534
REMARK  227  A    between atoms: _534  and  _535
REMARK  228  A    between atoms: _535  and  _536
REMARK  229  A    between atoms: _536  and  _537
REMARK  230  A    between atoms: _541  and  _543
REMARK  231  A    between atoms: _543  and  _544
REMARK  232  A    between atoms: _543  and  _546
REMARK  233  A    between atoms: _546  and  _547
REMARK  234  A    between atoms: _550  and  _552
REMARK  235  A    between atoms: _552  and  _553
REMARK  236  A    between atoms: _552  and  _555
REMARK  237  A    between atoms: _555  and  _556
REMARK  238  A    between atoms: _556  and  _557
REMARK  239  A    between atoms: _560  and  _561
REMARK  240  A    between atoms: _566  and  _568
REMARK  241  A    between atoms: _568  and  _569
REMARK  242  A    between atoms: _568  and  _571
REMARK  243  A    between atoms: _571  and  _572
REMARK  244  A    between atoms: _575  and  _577
REMARK  245  A    between atoms: _577  and  _578
REMARK  246  A    between atoms: _577  and  _580
REMARK  247  A    between atoms: _580  and  _581
REMARK  248  A    between atoms: _581  and  _582
REMARK  249  A    between atoms: _582  and  _583
REMARK  250  A    between atoms: _592  and  _594
REMARK  251  A    between atoms: _594  and  _595
REMARK  252  A    between atoms: _594  and  _597
REMARK  253  A    between atoms: _597  and  _598
REMARK  254  A    between atoms: _598  and  _599
REMARK  255  A    between atoms: _601  and  _603
REMARK  256  A    between atoms: _603  and  _604
REMARK  257  A    between atoms: _603  and  _606
REMARK  258  A    between atoms: _606  and  _607
REMARK                            x       y       z     vdW  Elec       q    Type
REMARK                         _______ _______ _______ _____ _____    ______ ____
ROOT
ATOM      1  O   HOH     1      34.110  19.943  92.985  0.00  0.00    +0.000 OA
ENDROOT
TORSDOF 0
REMARK  Name = ../refined-set-2016/1fcy/1fcy_pocket.pdb
REMARK  258 active torsions:
REMARK  status: ('A' for Active; 'I' for Inactive)
REMARK    1  A    between atoms: _1  and  _3
REMARK    2  A    between atoms: _3  and  _4
REMARK    3  A    between atoms: _3  and  _6
REMARK    4  A    between atoms: _6  and  _7
REMARK    5  A    between atoms: _10  and  _12
REMARK    6  A    between atoms: _12  and  _13
REMARK    7  A    between atoms: _12  and  _15
REMARK    8  A    between atoms: _15  and  _16
REMARK    9  A    between atoms: _23  and  _24
REMARK   10  A    between atoms: _29  and  _31
REMARK   11  A    between atoms: _31  and  _32
REMARK   12  A    between atoms: _31  and  _34
REMARK   13  A    between atoms: _34  and  _35
REMARK   14  A    between atoms: _38  and  _40
REMARK   15  A    between atoms: _40  and  _41
REMARK   16  A    between atoms: _40  and  _43
REMARK   17  A    between atoms: _43  and  _44
REMARK   18  A    between atoms: _54  and  _56
REMARK   19  A    between atoms: _56  and  _57
REMARK   20  A    between atoms: _56  and  _59
REMARK   21  A    between atoms: _59  and  _60
REMARK   22  A    between atoms: _60  and  _61
REMARK   23  A    between atoms: _61  and  _62
REMARK   24  A    between atoms: _62  and  _63
REMARK   25  A    between atoms: _67  and  _69
REMARK   26  A    between atoms: _69  and  _70
REMARK   27  A    between atoms: _69  and  _72
REMARK   28  A    between atoms: _72  and  _73
REMARK   29  A    between atoms: _79  and  _81
REMARK   30  A    between atoms: _81  and  _82
REMARK   31  A    between atoms: _81  and  _84
REMARK   32  A    between atoms: _84  and  _85
REMARK   33  A    between atoms: _87  and  _89
REMARK   34  A    between atoms: _89  and  _90
REMARK   35  A    between atoms: _89  and  _92
REMARK   36  A    between atoms: _92  and  _93
REMARK   37  A    between atoms: _93  and  _94
REMARK   38  A    between atoms: _97  and  _99
REMARK   39  A    between atoms: _99  and  _100
REMARK   40  A    between atoms: _99  and  _102
REMARK   41  A    between atoms: _102  and  _103
REMARK   42  A    between atoms: _106  and  _108
REMARK   43  A    between atoms: _108  and  _109
REMARK   44  A    between atoms: _112  and  _114
REMARK   45  A    between atoms: _114  and  _115
REMARK   46  A    between atoms: _114  and  _117
REMARK   47  A    between atoms: _117  and  _118
REMARK   48  A    between atoms: _121  and  _123
REMARK   49  A    between atoms: _123  and  _124
REMARK   50  A    between atoms: _123  and  _126
REMARK   51  A    between atoms: _127  and  _128
REMARK   52  A    between atoms: _128  and  _129
REMARK   53  A    between atoms: _129  and  _130
REMARK   54  A    between atoms: _134  and  _136
REMARK   55  A    between atoms: _136  and  _137
REMARK   56  A    between atoms: _136  and  _139
REMARK   57  A    between atoms: _141  and  _143
REMARK   58  A    between atoms: _143  and  _144
REMARK   59  A    between atoms: _143  and  _146
REMARK   60  A    between atoms: _146  and  _147
REMARK   61  A    between atoms: _150  and  _152
REMARK   62  A    between atoms: _152  and  _153
REMARK   63  A    between atoms: _152  and  _155
REMARK   64  A    between atoms: _155  and  _156
REMARK   65  A    between atoms: _156  and  _157
REMARK   66  A    between atoms: _157  and  _158
REMARK   67  A    between atoms: _158  and  _159
REMARK   68  A    between atoms: _163  and  _165
REMARK   69  A    between atoms: _165  and  _166
REMARK   70  A    between atoms: _165  and  _168
REMARK   71  A    between atoms: _168  and  _169
REMARK   72  A    between atoms: _172  and  _174
REMARK   73  A    between atoms: _174  and  _175
REMARK   74  A    between atoms: _174  and  _177
REMARK   75  A    between atoms: _179  and  _181
REMARK   76  A    between atoms: _181  and  _182
REMARK   77  A    between atoms: _181  and  _184
REMARK   78  A    between atoms: _184  and  _185
REMARK   79  A    between atoms: _188  and  _190
REMARK   80  A    between atoms: _190  and  _191
REMARK   81  A    between atoms: _190  and  _193
REMARK   82  A    between atoms: _193  and  _194
REMARK   83  A    between atoms: _197  and  _199
REMARK   84  A    between atoms: _199  and  _200
REMARK   85  A    between atoms: _199  and  _202
REMARK   86  A    between atoms: _202  and  _203
REMARK   87  A    between atoms: _206  and  _208
REMARK   88  A    between atoms: _208  and  _209
REMARK   89  A    between atoms: _208  and  _211
REMARK   90  A    between atoms: _211  and  _212
REMARK   91  A    between atoms: _215  and  _217
REMARK   92  A    between atoms: _217  and  _218
REMARK   93  A    between atoms: _217  and  _220
REMARK   94  A    between atoms: _220  and  _221
REMARK   95  A    between atoms: _221  and  _222
REMARK   96  A    between atoms: _224  and  _226
REMARK   97  A    between atoms: _226  and  _227
REMARK   98  A    between atoms: _226  and  _229
REMARK   99  A    between atoms: _229  and  _230
REMARK  100  A    between atoms: _233  and  _235
REMARK  101  A    between atoms: _235  and  _236
REMARK  102  A    between atoms: _235  and  _238
REMARK  103  A    between atoms: _238  and  _239
REMARK  104  A    between atoms: _239  and  _240
REMARK  105  A    between atoms: _240  and  _241
REMARK  106  A    between atoms: _250  and  _252
REMARK  107  A    between atoms: _252  and  _253
REMARK  108  A    between atoms: _252  and  _255
REMARK  109  A    between atoms: _255  and  _256
REMARK  110  A    between atoms: _259  and  _261
REMARK  111  A    between atoms: _261  and  _262
REMARK  112  A    between atoms: _261  and  _264
REMARK  113  A    between atoms: _266  and  _268
REMARK  114  A    between atoms: _268  and  _269
REMARK  115  A    between atoms: _268  and  _271
REMARK  116  A    between atoms: _271  and  _272
REMARK  117  A    between atoms: _275  and  _277
REMARK  118  A    between atoms: _277  and  _278
REMARK  119  A    between atoms: _277  and  _280
REMARK  120  A    between atoms: _280  and  _281
REMARK  121  A    between atoms: _281  and  _282
REMARK  122  A    between atoms: _282  and  _283
REMARK  123  A    between atoms: _292  and  _294
REMARK  124  A    between atoms: _294  and  _295
REMARK  125  A    between atoms: _294  and  _297
REMARK  126  A    between atoms: _297  and  _298
REMARK  127  A    between atoms: _298  and  _299
REMARK  128  A    between atoms: _301  and  _303
REMARK  129  A    between atoms: _303  and  _304
REMARK  130  A    between atoms: _303  and  _306
REMARK  131  A    between atoms: _306  and  _307
REMARK  132  A    between atoms: _310  and  _312
REMARK  133  A    between atoms: _312  and  _313
REMARK  134  A    between atoms: _312  and  _315
REMARK  135  A    between atoms: _315  and  _316
REMARK  136  A    between atoms: _322  and  _324
REMARK  137  A    between atoms: _324  and  _325
REMARK  138  A    between atoms: _324  and  _327
REMARK  139  A    between atoms: _327  and  _328
REMARK  140  A    between atoms: _330  and  _332
REMARK  141  A    between atoms: _332  and  _333
REMARK  142  A    between atoms: _332  and  _335
REMARK  143  A    between atoms: _335  and  _336
REMARK  144  A    between atoms: _339  and  _341
REMARK  145  A    between atoms: _341  and  _342
REMARK  146  A    between atoms: _344  and  _346
REMARK  147  A    between atoms: _346  and  _347
REMARK  148  A    between atoms: _346  and  _349
REMARK  149  A    between atoms: _349  and  _350
REMARK  150  A    between atoms: _353  and  _355
REMARK  151  A    between atoms: _355  and  _356
REMARK  152  A    between atoms: _355  and  _358
REMARK  153  A    between atoms: _358  and  _359
REMARK  154  A    between atoms: _359  and  _360
REMARK  155  A    between atoms: _362  and  _364
REMARK  156  A    between atoms: _364  and  _365
REMARK  157  A    between atoms: _364  and  _367
REMARK  158  A    between atoms: _367  and  _368
REMARK  159  A    between atoms: _373  and  _375
REMARK  160  A    between atoms: _375  and  _376
REMARK  161  A    between atoms: _379  and  _381
REMARK  162  A    between atoms: _381  and  _382
REMARK  163  A    between atoms: _384  and  _386
REMARK  164  A    between atoms: _386  and  _387
REMARK  165  A    between atoms: _386  and  _389
REMARK  166  A    between atoms: _389  and  _390
REMARK  167  A    between atoms: _396  and  _398
REMARK  168  A    between atoms: _398  and  _399
REMARK  169  A    between atoms: _401  and  _403
REMARK  170  A    between atoms: _403  and  _404
REMARK  171  A    between atoms: _403  and  _406
REMARK  172  A    between atoms: _406  and  _407
REMARK  173  A    between atoms: _410  and  _412
REMARK  174  A    between atoms: _412  and  _413
REMARK  175  A    between atoms: _412  and  _415
REMARK  176  A    between atoms: _415  and  _416
REMARK  177  A    between atoms: _419  and  _421
REMARK  178  A    between atoms: _421  and  _422
REMARK  179  A    between atoms: _421  and  _424
REMARK  180  A    between atoms: _427  and  _429
REMARK  181  A    between atoms: _429  and  _430
REMARK  182  A    between atoms: _429  and  _432
REMARK  183  A    between atoms: _432  and  _433
REMARK  184  A    between atoms: _436  and  _438
REMARK  185  A    between atoms: _438  and  _439
REMARK  186  A    between atoms: _438  and  _441
REMARK  187  A    between atoms: _441  and  _442
REMARK  188  A    between atoms: _444  and  _446
REMARK  189  A    between atoms: _446  and  _447
REMARK  190  A    between atoms: _446  and  _449
REMARK  191  A    between atoms: _449  and  _450
REMARK  192  A    between atoms: _450  and  _451
REMARK  193  A    between atoms: _451  and  _452
REMARK  194  A    between atoms: _452  and  _453
REMARK  195  A    between atoms: _457  and  _459
REMARK  196  A    between atoms: _459  and  _460
REMARK  197  A    between atoms: _462  and  _464
REMARK  198  A    between atoms: _464  and  _465
REMARK  199  A    between atoms: _468  and  _470
REMARK  200  A    between atoms: _470  and  _471
REMARK  201  A    between atoms: _470  and  _473
REMARK  202  A    between atoms: _474  and  _475
REMARK  203  A    between atoms: _478  and  _480
REMARK  204  A    between atoms: _480  and  _481
REMARK  205  A    between atoms: _480  and  _483
REMARK  206  A    between atoms: _483  and  _484
REMARK  207  A    between atoms: _484  and  _485
REMARK  208  A    between atoms: _485  and  _486
REMARK  209  A    between atoms: _495  and  _497
REMARK  210  A    between atoms: _497  and  _498
REMARK  211  A    between atoms: _501  and  _503
REMARK  212  A    between atoms: _503  and  _504
REMARK  213  A    between atoms: _503  and  _506
REMARK  214  A    between atoms: _506  and  _507
REMARK  215  A    between atoms: _510  and  _512
REMARK  216  A    between atoms: _512  and  _513
REMARK  217  A    between atoms: _512  and  _515
REMARK  218  A    between atoms: _515  and  _516
REMARK  219  A    between atoms: _519  and  _521
REMARK  220  A    between atoms: _521  and  _522
REMARK  221  A    between atoms: _521  and  _524
REMARK  222  A    between atoms: _524  and  _525
REMARK  223  A    between atoms: _528  and  _530
REMARK  224  A    between atoms: _530  and  _531
REMARK  225  A    between atoms: _530  and  _533
REMARK  226  A    between atoms: _533  and  _534
REMARK  227  A    between atoms: _534  and  _535
REMARK  228  A    between atoms: _535  and  _536
REMARK  229  A    between atoms: _536  and  _537
REMARK  230  A    between atoms: _541  and  _543
REMARK  231  A    between atoms: _543  and  _544
REMARK  232  A    between atoms: _543  and  _546
REMARK  233  A    between atoms: _546  and  _547
REMARK  234  A    between atoms: _550  and  _552
REMARK  235  A    between atoms: _552  and  _553
REMARK  236  A    between atoms: _552  and  _555
REMARK  237  A    between atoms: _555  and  _556
REMARK  238  A    between atoms: _556  and  _557
REMARK  239  A    between atoms: _560  and  _561
REMARK  240  A    between atoms: _566  and  _568
REMARK  241  A    between atoms: _568  and  _569
REMARK  242  A    between atoms: _568  and  _571
REMARK  243  A    between atoms: _571  and  _572
REMARK  244  A    between atoms: _575  and  _577
REMARK  245  A    between atoms: _577  and  _578
REMARK  246  A    between atoms: _577  and  _580
REMARK  247  A    between atoms: _580  and  _581
REMARK  248  A    between atoms: _581  and  _582
REMARK  249  A    between atoms: _582  and  _583
REMARK  250  A    between atoms: _592  and  _594
REMARK  251  A    between atoms: _594  and  _595
REMARK  252  A    between atoms: _594  and  _597
REMARK  253  A    between atoms: _597  and  _598
REMARK  254  A    between atoms: _598  and  _599
REMARK  255  A    between atoms: _601  and  _603
REMARK  256  A    between atoms: _603  and  _604
REMARK  257  A    between atoms: _603  and  _606
REMARK  258  A    between atoms: _606  and  _607
REMARK                            x       y       z     vdW  Elec       q    Type
REMARK                         _______ _______ _______ _____ _____    ______ ____
ROOT
ATOM      1  O   HOH     1      46.231   6.048  77.023  0.00  0.00    +0.000 OA
ENDROOT
TORSDOF 0
REMARK  Name = ../refined-set-2016/1fcy/1fcy_pocket.pdb
REMARK  258 active torsions:
REMARK  status: ('A' for Active; 'I' for Inactive)
REMARK    1  A    between atoms: _1  and  _3
REMARK    2  A    between atoms: _3  and  _4
REMARK    3  A    between atoms: _3  and  _6
REMARK    4  A    between atoms: _6  and  _7
REMARK    5  A    between atoms: _10  and  _12
REMARK    6  A    between atoms: _12  and  _13
REMARK    7  A    between atoms: _12  and  _15
REMARK    8  A    between atoms: _15  and  _16
REMARK    9  A    between atoms: _23  and  _24
REMARK   10  A    between atoms: _29  and  _31
REMARK   11  A    between atoms: _31  and  _32
REMARK   12  A    between atoms: _31  and  _34
REMARK   13  A    between atoms: _34  and  _35
REMARK   14  A    between atoms: _38  and  _40
REMARK   15  A    between atoms: _40  and  _41
REMARK   16  A    between atoms: _40  and  _43
REMARK   17  A    between atoms: _43  and  _44
REMARK   18  A    between atoms: _54  and  _56
REMARK   19  A    between atoms: _56  and  _57
REMARK   20  A    between atoms: _56  and  _59
REMARK   21  A    between atoms: _59  and  _60
REMARK   22  A    between atoms: _60  and  _61
REMARK   23  A    between atoms: _61  and  _62
REMARK   24  A    between atoms: _62  and  _63
REMARK   25  A    between atoms: _67  and  _69
REMARK   26  A    between atoms: _69  and  _70
REMARK   27  A    between atoms: _69  and  _72
REMARK   28  A    between atoms: _72  and  _73
REMARK   29  A    between atoms: _79  and  _81
REMARK   30  A    between atoms: _81  and  _82
REMARK   31  A    between atoms: _81  and  _84
REMARK   32  A    between atoms: _84  and  _85
REMARK   33  A    between atoms: _87  and  _89
REMARK   34  A    between atoms: _89  and  _90
REMARK   35  A    between atoms: _89  and  _92
REMARK   36  A    between atoms: _92  and  _93
REMARK   37  A    between atoms: _93  and  _94
REMARK   38  A    between atoms: _97  and  _99
REMARK   39  A    between atoms: _99  and  _100
REMARK   40  A    between atoms: _99  and  _102
REMARK   41  A    between atoms: _102  and  _103
REMARK   42  A    between atoms: _106  and  _108
REMARK   43  A    between atoms: _108  and  _109
REMARK   44  A    between atoms: _112  and  _114
REMARK   45  A    between atoms: _114  and  _115
REMARK   46  A    between atoms: _114  and  _117
REMARK   47  A    between atoms: _117  and  _118
REMARK   48  A    between atoms: _121  and  _123
REMARK   49  A    between atoms: _123  and  _124
REMARK   50  A    between atoms: _123  and  _126
REMARK   51  A    between atoms: _127  and  _128
REMARK   52  A    between atoms: _128  and  _129
REMARK   53  A    between atoms: _129  and  _130
REMARK   54  A    between atoms: _134  and  _136
REMARK   55  A    between atoms: _136  and  _137
REMARK   56  A    between atoms: _136  and  _139
REMARK   57  A    between atoms: _141  and  _143
REMARK   58  A    between atoms: _143  and  _144
REMARK   59  A    between atoms: _143  and  _146
REMARK   60  A    between atoms: _146  and  _147
REMARK   61  A    between atoms: _150  and  _152
REMARK   62  A    between atoms: _152  and  _153
REMARK   63  A    between atoms: _152  and  _155
REMARK   64  A    between atoms: _155  and  _156
REMARK   65  A    between atoms: _156  and  _157
REMARK   66  A    between atoms: _157  and  _158
REMARK   67  A    between atoms: _158  and  _159
REMARK   68  A    between atoms: _163  and  _165
REMARK   69  A    between atoms: _165  and  _166
REMARK   70  A    between atoms: _165  and  _168
REMARK   71  A    between atoms: _168  and  _169
REMARK   72  A    between atoms: _172  and  _174
REMARK   73  A    between atoms: _174  and  _175
REMARK   74  A    between atoms: _174  and  _177
REMARK   75  A    between atoms: _179  and  _181
REMARK   76  A    between atoms: _181  and  _182
REMARK   77  A    between atoms: _181  and  _184
REMARK   78  A    between atoms: _184  and  _185
REMARK   79  A    between atoms: _188  and  _190
REMARK   80  A    between atoms: _190  and  _191
REMARK   81  A    between atoms: _190  and  _193
REMARK   82  A    between atoms: _193  and  _194
REMARK   83  A    between atoms: _197  and  _199
REMARK   84  A    between atoms: _199  and  _200
REMARK   85  A    between atoms: _199  and  _202
REMARK   86  A    between atoms: _202  and  _203
REMARK   87  A    between atoms: _206  and  _208
REMARK   88  A    between atoms: _208  and  _209
REMARK   89  A    between atoms: _208  and  _211
REMARK   90  A    between atoms: _211  and  _212
REMARK   91  A    between atoms: _215  and  _217
REMARK   92  A    between atoms: _217  and  _218
REMARK   93  A    between atoms: _217  and  _220
REMARK   94  A    between atoms: _220  and  _221
REMARK   95  A    between atoms: _221  and  _222
REMARK   96  A    between atoms: _224  and  _226
REMARK   97  A    between atoms: _226  and  _227
REMARK   98  A    between atoms: _226  and  _229
REMARK   99  A    between atoms: _229  and  _230
REMARK  100  A    between atoms: _233  and  _235
REMARK  101  A    between atoms: _235  and  _236
REMARK  102  A    between atoms: _235  and  _238
REMARK  103  A    between atoms: _238  and  _239
REMARK  104  A    between atoms: _239  and  _240
REMARK  105  A    between atoms: _240  and  _241
REMARK  106  A    between atoms: _250  and  _252
REMARK  107  A    between atoms: _252  and  _253
REMARK  108  A    between atoms: _252  and  _255
REMARK  109  A    between atoms: _255  and  _256
REMARK  110  A    between atoms: _259  and  _261
REMARK  111  A    between atoms: _261  and  _262
REMARK  112  A    between atoms: _261  and  _264
REMARK  113  A    between atoms: _266  and  _268
REMARK  114  A    between atoms: _268  and  _269
REMARK  115  A    between atoms: _268  and  _271
REMARK  116  A    between atoms: _271  and  _272
REMARK  117  A    between atoms: _275  and  _277
REMARK  118  A    between atoms: _277  and  _278
REMARK  119  A    between atoms: _277  and  _280
REMARK  120  A    between atoms: _280  and  _281
REMARK  121  A    between atoms: _281  and  _282
REMARK  122  A    between atoms: _282  and  _283
REMARK  123  A    between atoms: _292  and  _294
REMARK  124  A    between atoms: _294  and  _295
REMARK  125  A    between atoms: _294  and  _297
REMARK  126  A    between atoms: _297  and  _298
REMARK  127  A    between atoms: _298  and  _299
REMARK  128  A    between atoms: _301  and  _303
REMARK  129  A    between atoms: _303  and  _304
REMARK  130  A    between atoms: _303  and  _306
REMARK  131  A    between atoms: _306  and  _307
REMARK  132  A    between atoms: _310  and  _312
REMARK  133  A    between atoms: _312  and  _313
REMARK  134  A    between atoms: _312  and  _315
REMARK  135  A    between atoms: _315  and  _316
REMARK  136  A    between atoms: _322  and  _324
REMARK  137  A    between atoms: _324  and  _325
REMARK  138  A    between atoms: _324  and  _327
REMARK  139  A    between atoms: _327  and  _328
REMARK  140  A    between atoms: _330  and  _332
REMARK  141  A    between atoms: _332  and  _333
REMARK  142  A    between atoms: _332  and  _335
REMARK  143  A    between atoms: _335  and  _336
REMARK  144  A    between atoms: _339  and  _341
REMARK  145  A    between atoms: _341  and  _342
REMARK  146  A    between atoms: _344  and  _346
REMARK  147  A    between atoms: _346  and  _347
REMARK  148  A    between atoms: _346  and  _349
REMARK  149  A    between atoms: _349  and  _350
REMARK  150  A    between atoms: _353  and  _355
REMARK  151  A    between atoms: _355  and  _356
REMARK  152  A    between atoms: _355  and  _358
REMARK  153  A    between atoms: _358  and  _359
REMARK  154  A    between atoms: _359  and  _360
REMARK  155  A    between atoms: _362  and  _364
REMARK  156  A    between atoms: _364  and  _365
REMARK  157  A    between atoms: _364  and  _367
REMARK  158  A    between atoms: _367  and  _368
REMARK  159  A    between atoms: _373  and  _375
REMARK  160  A    between atoms: _375  and  _376
REMARK  161  A    between atoms: _379  and  _381
REMARK  162  A    between atoms: _381  and  _382
REMARK  163  A    between atoms: _384  and  _386
REMARK  164  A    between atoms: _386  and  _387
REMARK  165  A    between atoms: _386  and  _389
REMARK  166  A    between atoms: _389  and  _390
REMARK  167  A    between atoms: _396  and  _398
REMARK  168  A    between atoms: _398  and  _399
REMARK  169  A    between atoms: _401  and  _403
REMARK  170  A    between atoms: _403  and  _404
REMARK  171  A    between atoms: _403  and  _406
REMARK  172  A    between atoms: _406  and  _407
REMARK  173  A    between atoms: _410  and  _412
REMARK  174  A    between atoms: _412  and  _413
REMARK  175  A    between atoms: _412  and  _415
REMARK  176  A    between atoms: _415  and  _416
REMARK  177  A    between atoms: _419  and  _421
REMARK  178  A    between atoms: _421  and  _422
REMARK  179  A    between atoms: _421  and  _424
REMARK  180  A    between atoms: _427  and  _429
REMARK  181  A    between atoms: _429  and  _430
REMARK  182  A    between atoms: _429  and  _432
REMARK  183  A    between atoms: _432  and  _433
REMARK  184  A    between atoms: _436  and  _438
REMARK  185  A    between atoms: _438  and  _439
REMARK  186  A    between atoms: _438  and  _441
REMARK  187  A    between atoms: _441  and  _442
REMARK  188  A    between atoms: _444  and  _446
REMARK  189  A    between atoms: _446  and  _447
REMARK  190  A    between atoms: _446  and  _449
REMARK  191  A    between atoms: _449  and  _450
REMARK  192  A    between atoms: _450  and  _451
REMARK  193  A    between atoms: _451  and  _452
REMARK  194  A    between atoms: _452  and  _453
REMARK  195  A    between atoms: _457  and  _459
REMARK  196  A    between atoms: _459  and  _460
REMARK  197  A    between atoms: _462  and  _464
REMARK  198  A    between atoms: _464  and  _465
REMARK  199  A    between atoms: _468  and  _470
REMARK  200  A    between atoms: _470  and  _471
REMARK  201  A    between atoms: _470  and  _473
REMARK  202  A    between atoms: _474  and  _475
REMARK  203  A    between atoms: _478  and  _480
REMARK  204  A    between atoms: _480  and  _481
REMARK  205  A    between atoms: _480  and  _483
REMARK  206  A    between atoms: _483  and  _484
REMARK  207  A    between atoms: _484  and  _485
REMARK  208  A    between atoms: _485  and  _486
REMARK  209  A    between atoms: _495  and  _497
REMARK  210  A    between atoms: _497  and  _498
REMARK  211  A    between atoms: _501  and  _503
REMARK  212  A    between atoms: _503  and  _504
REMARK  213  A    between atoms: _503  and  _506
REMARK  214  A    between atoms: _506  and  _507
REMARK  215  A    between atoms: _510  and  _512
REMARK  216  A    between atoms: _512  and  _513
REMARK  217  A    between atoms: _512  and  _515
REMARK  218  A    between atoms: _515  and  _516
REMARK  219  A    between atoms: _519  and  _521
REMARK  220  A    between atoms: _521  and  _522
REMARK  221  A    between atoms: _521  and  _524
REMARK  222  A    between atoms: _524  and  _525
REMARK  223  A    between atoms: _528  and  _530
REMARK  224  A    between atoms: _530  and  _531
REMARK  225  A    between atoms: _530  and  _533
REMARK  226  A    between atoms: _533  and  _534
REMARK  227  A    between atoms: _534  and  _535
REMARK  228  A    between atoms: _535  and  _536
REMARK  229  A    between atoms: _536  and  _537
REMARK  230  A    between atoms: _541  and  _543
REMARK  231  A    between atoms: _543  and  _544
REMARK  232  A    between atoms: _543  and  _546
REMARK  233  A    between atoms: _546  and  _547
REMARK  234  A    between atoms: _550  and  _552
REMARK  235  A    between atoms: _552  and  _553
REMARK  236  A    between atoms: _552  and  _555
REMARK  237  A    between atoms: _555  and  _556
REMARK  238  A    between atoms: _556  and  _557
REMARK  239  A    between atoms: _560  and  _561
REMARK  240  A    between atoms: _566  and  _568
REMARK  241  A    between atoms: _568  and  _569
REMARK  242  A    between atoms: _568  and  _571
REMARK  243  A    between atoms: _571  and  _572
REMARK  244  A    between atoms: _575  and  _577
REMARK  245  A    between atoms: _577  and  _578
REMARK  246  A    between atoms: _577  and  _580
REMARK  247  A    between atoms: _580  and  _581
REMARK  248  A    between atoms: _581  and  _582
REMARK  249  A    between atoms: _582  and  _583
REMARK  250  A    between atoms: _592  and  _594
REMARK  251  A    between atoms: _594  and  _595
REMARK  252  A    between atoms: _594  and  _597
REMARK  253  A    between atoms: _597  and  _598
REMARK  254  A    between atoms: _598  and  _599
REMARK  255  A    between atoms: _601  and  _603
REMARK  256  A    between atoms: _603  and  _604
REMARK  257  A    between atoms: _603  and  _606
REMARK  258  A    between atoms: _606  and  _607
REMARK                            x       y       z     vdW  Elec       q    Type
REMARK                         _______ _______ _______ _____ _____    ______ ____
ROOT
ATOM      1  O   HOH     1      35.779  21.541  91.248  0.00  0.00    +0.000 OA
ENDROOT
TORSDOF 0
REMARK  Name = ../refined-set-2016/1fcy/1fcy_pocket.pdb
REMARK  258 active torsions:
REMARK  status: ('A' for Active; 'I' for Inactive)
REMARK    1  A    between atoms: _1  and  _3
REMARK    2  A    between atoms: _3  and  _4
REMARK    3  A    between atoms: _3  and  _6
REMARK    4  A    between atoms: _6  and  _7
REMARK    5  A    between atoms: _10  and  _12
REMARK    6  A    between atoms: _12  and  _13
REMARK    7  A    between atoms: _12  and  _15
REMARK    8  A    between atoms: _15  and  _16
REMARK    9  A    between atoms: _23  and  _24
REMARK   10  A    between atoms: _29  and  _31
REMARK   11  A    between atoms: _31  and  _32
REMARK   12  A    between atoms: _31  and  _34
REMARK   13  A    between atoms: _34  and  _35
REMARK   14  A    between atoms: _38  and  _40
REMARK   15  A    between atoms: _40  and  _41
REMARK   16  A    between atoms: _40  and  _43
REMARK   17  A    between atoms: _43  and  _44
REMARK   18  A    between atoms: _54  and  _56
REMARK   19  A    between atoms: _56  and  _57
REMARK   20  A    between atoms: _56  and  _59
REMARK   21  A    between atoms: _59  and  _60
REMARK   22  A    between atoms: _60  and  _61
REMARK   23  A    between atoms: _61  and  _62
REMARK   24  A    between atoms: _62  and  _63
REMARK   25  A    between atoms: _67  and  _69
REMARK   26  A    between atoms: _69  and  _70
REMARK   27  A    between atoms: _69  and  _72
REMARK   28  A    between atoms: _72  and  _73
REMARK   29  A    between atoms: _79  and  _81
REMARK   30  A    between atoms: _81  and  _82
REMARK   31  A    between atoms: _81  and  _84
REMARK   32  A    between atoms: _84  and  _85
REMARK   33  A    between atoms: _87  and  _89
REMARK   34  A    between atoms: _89  and  _90
REMARK   35  A    between atoms: _89  and  _92
REMARK   36  A    between atoms: _92  and  _93
REMARK   37  A    between atoms: _93  and  _94
REMARK   38  A    between atoms: _97  and  _99
REMARK   39  A    between atoms: _99  and  _100
REMARK   40  A    between atoms: _99  and  _102
REMARK   41  A    between atoms: _102  and  _103
REMARK   42  A    between atoms: _106  and  _108
REMARK   43  A    between atoms: _108  and  _109
REMARK   44  A    between atoms: _112  and  _114
REMARK   45  A    between atoms: _114  and  _115
REMARK   46  A    between atoms: _114  and  _117
REMARK   47  A    between atoms: _117  and  _118
REMARK   48  A    between atoms: _121  and  _123
REMARK   49  A    between atoms: _123  and  _124
REMARK   50  A    between atoms: _123  and  _126
REMARK   51  A    between atoms: _127  and  _128
REMARK   52  A    between atoms: _128  and  _129
REMARK   53  A    between atoms: _129  and  _130
REMARK   54  A    between atoms: _134  and  _136
REMARK   55  A    between atoms: _136  and  _137
REMARK   56  A    between atoms: _136  and  _139
REMARK   57  A    between atoms: _141  and  _143
REMARK   58  A    between atoms: _143  and  _144
REMARK   59  A    between atoms: _143  and  _146
REMARK   60  A    between atoms: _146  and  _147
REMARK   61  A    between atoms: _150  and  _152
REMARK   62  A    between atoms: _152  and  _153
REMARK   63  A    between atoms: _152  and  _155
REMARK   64  A    between atoms: _155  and  _156
REMARK   65  A    between atoms: _156  and  _157
REMARK   66  A    between atoms: _157  and  _158
REMARK   67  A    between atoms: _158  and  _159
REMARK   68  A    between atoms: _163  and  _165
REMARK   69  A    between atoms: _165  and  _166
REMARK   70  A    between atoms: _165  and  _168
REMARK   71  A    between atoms: _168  and  _169
REMARK   72  A    between atoms: _172  and  _174
REMARK   73  A    between atoms: _174  and  _175
REMARK   74  A    between atoms: _174  and  _177
REMARK   75  A    between atoms: _179  and  _181
REMARK   76  A    between atoms: _181  and  _182
REMARK   77  A    between atoms: _181  and  _184
REMARK   78  A    between atoms: _184  and  _185
REMARK   79  A    between atoms: _188  and  _190
REMARK   80  A    between atoms: _190  and  _191
REMARK   81  A    between atoms: _190  and  _193
REMARK   82  A    between atoms: _193  and  _194
REMARK   83  A    between atoms: _197  and  _199
REMARK   84  A    between atoms: _199  and  _200
REMARK   85  A    between atoms: _199  and  _202
REMARK   86  A    between atoms: _202  and  _203
REMARK   87  A    between atoms: _206  and  _208
REMARK   88  A    between atoms: _208  and  _209
REMARK   89  A    between atoms: _208  and  _211
REMARK   90  A    between atoms: _211  and  _212
REMARK   91  A    between atoms: _215  and  _217
REMARK   92  A    between atoms: _217  and  _218
REMARK   93  A    between atoms: _217  and  _220
REMARK   94  A    between atoms: _220  and  _221
REMARK   95  A    between atoms: _221  and  _222
REMARK   96  A    between atoms: _224  and  _226
REMARK   97  A    between atoms: _226  and  _227
REMARK   98  A    between atoms: _226  and  _229
REMARK   99  A    between atoms: _229  and  _230
REMARK  100  A    between atoms: _233  and  _235
REMARK  101  A    between atoms: _235  and  _236
REMARK  102  A    between atoms: _235  and  _238
REMARK  103  A    between atoms: _238  and  _239
REMARK  104  A    between atoms: _239  and  _240
REMARK  105  A    between atoms: _240  and  _241
REMARK  106  A    between atoms: _250  and  _252
REMARK  107  A    between atoms: _252  and  _253
REMARK  108  A    between atoms: _252  and  _255
REMARK  109  A    between atoms: _255  and  _256
REMARK  110  A    between atoms: _259  and  _261
REMARK  111  A    between atoms: _261  and  _262
REMARK  112  A    between atoms: _261  and  _264
REMARK  113  A    between atoms: _266  and  _268
REMARK  114  A    between atoms: _268  and  _269
REMARK  115  A    between atoms: _268  and  _271
REMARK  116  A    between atoms: _271  and  _272
REMARK  117  A    between atoms: _275  and  _277
REMARK  118  A    between atoms: _277  and  _278
REMARK  119  A    between atoms: _277  and  _280
REMARK  120  A    between atoms: _280  and  _281
REMARK  121  A    between atoms: _281  and  _282
REMARK  122  A    between atoms: _282  and  _283
REMARK  123  A    between atoms: _292  and  _294
REMARK  124  A    between atoms: _294  and  _295
REMARK  125  A    between atoms: _294  and  _297
REMARK  126  A    between atoms: _297  and  _298
REMARK  127  A    between atoms: _298  and  _299
REMARK  128  A    between atoms: _301  and  _303
REMARK  129  A    between atoms: _303  and  _304
REMARK  130  A    between atoms: _303  and  _306
REMARK  131  A    between atoms: _306  and  _307
REMARK  132  A    between atoms: _310  and  _312
REMARK  133  A    between atoms: _312  and  _313
REMARK  134  A    between atoms: _312  and  _315
REMARK  135  A    between atoms: _315  and  _316
REMARK  136  A    between atoms: _322  and  _324
REMARK  137  A    between atoms: _324  and  _325
REMARK  138  A    between atoms: _324  and  _327
REMARK  139  A    between atoms: _327  and  _328
REMARK  140  A    between atoms: _330  and  _332
REMARK  141  A    between atoms: _332  and  _333
REMARK  142  A    between atoms: _332  and  _335
REMARK  143  A    between atoms: _335  and  _336
REMARK  144  A    between atoms: _339  and  _341
REMARK  145  A    between atoms: _341  and  _342
REMARK  146  A    between atoms: _344  and  _346
REMARK  147  A    between atoms: _346  and  _347
REMARK  148  A    between atoms: _346  and  _349
REMARK  149  A    between atoms: _349  and  _350
REMARK  150  A    between atoms: _353  and  _355
REMARK  151  A    between atoms: _355  and  _356
REMARK  152  A    between atoms: _355  and  _358
REMARK  153  A    between atoms: _358  and  _359
REMARK  154  A    between atoms: _359  and  _360
REMARK  155  A    between atoms: _362  and  _364
REMARK  156  A    between atoms: _364  and  _365
REMARK  157  A    between atoms: _364  and  _367
REMARK  158  A    between atoms: _367  and  _368
REMARK  159  A    between atoms: _373  and  _375
REMARK  160  A    between atoms: _375  and  _376
REMARK  161  A    between atoms: _379  and  _381
REMARK  162  A    between atoms: _381  and  _382
REMARK  163  A    between atoms: _384  and  _386
REMARK  164  A    between atoms: _386  and  _387
REMARK  165  A    between atoms: _386  and  _389
REMARK  166  A    between atoms: _389  and  _390
REMARK  167  A    between atoms: _396  and  _398
REMARK  168  A    between atoms: _398  and  _399
REMARK  169  A    between atoms: _401  and  _403
REMARK  170  A    between atoms: _403  and  _404
REMARK  171  A    between atoms: _403  and  _406
REMARK  172  A    between atoms: _406  and  _407
REMARK  173  A    between atoms: _410  and  _412
REMARK  174  A    between atoms: _412  and  _413
REMARK  175  A    between atoms: _412  and  _415
REMARK  176  A    between atoms: _415  and  _416
REMARK  177  A    between atoms: _419  and  _421
REMARK  178  A    between atoms: _421  and  _422
REMARK  179  A    between atoms: _421  and  _424
REMARK  180  A    between atoms: _427  and  _429
REMARK  181  A    between atoms: _429  and  _430
REMARK  182  A    between atoms: _429  and  _432
REMARK  183  A    between atoms: _432  and  _433
REMARK  184  A    between atoms: _436  and  _438
REMARK  185  A    between atoms: _438  and  _439
REMARK  186  A    between atoms: _438  and  _441
REMARK  187  A    between atoms: _441  and  _442
REMARK  188  A    between atoms: _444  and  _446
REMARK  189  A    between atoms: _446  and  _447
REMARK  190  A    between atoms: _446  and  _449
REMARK  191  A    between atoms: _449  and  _450
REMARK  192  A    between atoms: _450  and  _451
REMARK  193  A    between atoms: _451  and  _452
REMARK  194  A    between atoms: _452  and  _453
REMARK  195  A    between atoms: _457  and  _459
REMARK  196  A    between atoms: _459  and  _460
REMARK  197  A    between atoms: _462  and  _464
REMARK  198  A    between atoms: _464  and  _465
REMARK  199  A    between atoms: _468  and  _470
REMARK  200  A    between atoms: _470  and  _471
REMARK  201  A    between atoms: _470  and  _473
REMARK  202  A    between atoms: _474  and  _475
REMARK  203  A    between atoms: _478  and  _480
REMARK  204  A    between atoms: _480  and  _481
REMARK  205  A    between atoms: _480  and  _483
REMARK  206  A    between atoms: _483  and  _484
REMARK  207  A    between atoms: _484  and  _485
REMARK  208  A    between atoms: _485  and  _486
REMARK  209  A    between atoms: _495  and  _497
REMARK  210  A    between atoms: _497  and  _498
REMARK  211  A    between atoms: _501  and  _503
REMARK  212  A    between atoms: _503  and  _504
REMARK  213  A    between atoms: _503  and  _506
REMARK  214  A    between atoms: _506  and  _507
REMARK  215  A    between atoms: _510  and  _512
REMARK  216  A    between atoms: _512  and  _513
REMARK  217  A    between atoms: _512  and  _515
REMARK  218  A    between atoms: _515  and  _516
REMARK  219  A    between atoms: _519  and  _521
REMARK  220  A    between atoms: _521  and  _522
REMARK  221  A    between atoms: _521  and  _524
REMARK  222  A    between atoms: _524  and  _525
REMARK  223  A    between atoms: _528  and  _530
REMARK  224  A    between atoms: _530  and  _531
REMARK  225  A    between atoms: _530  and  _533
REMARK  226  A    between atoms: _533  and  _534
REMARK  227  A    between atoms: _534  and  _535
REMARK  228  A    between atoms: _535  and  _536
REMARK  229  A    between atoms: _536  and  _537
REMARK  230  A    between atoms: _541  and  _543
REMARK  231  A    between atoms: _543  and  _544
REMARK  232  A    between atoms: _543  and  _546
REMARK  233  A    between atoms: _546  and  _547
REMARK  234  A    between atoms: _550  and  _552
REMARK  235  A    between atoms: _552  and  _553
REMARK  236  A    between atoms: _552  and  _555
REMARK  237  A    between atoms: _555  and  _556
REMARK  238  A    between atoms: _556  and  _557
REMARK  239  A    between atoms: _560  and  _561
REMARK  240  A    between atoms: _566  and  _568
REMARK  241  A    between atoms: _568  and  _569
REMARK  242  A    between atoms: _568  and  _571
REMARK  243  A    between atoms: _571  and  _572
REMARK  244  A    between atoms: _575  and  _577
REMARK  245  A    between atoms: _577  and  _578
REMARK  246  A    between atoms: _577  and  _580
REMARK  247  A    between atoms: _580  and  _581
REMARK  248  A    between atoms: _581  and  _582
REMARK  249  A    between atoms: _582  and  _583
REMARK  250  A    between atoms: _592  and  _594
REMARK  251  A    between atoms: _594  and  _595
REMARK  252  A    between atoms: _594  and  _597
REMARK  253  A    between atoms: _597  and  _598
REMARK  254  A    between atoms: _598  and  _599
REMARK  255  A    between atoms: _601  and  _603
REMARK  256  A    between atoms: _603  and  _604
REMARK  257  A    between atoms: _603  and  _606
REMARK  258  A    between atoms: _606  and  _607
REMARK                            x       y       z     vdW  Elec       q    Type
REMARK                         _______ _______ _______ _____ _____    ______ ____
ROOT
ATOM      1  O   HOH     1      52.552  11.569  84.435  0.00  0.00    +0.000 OA
ENDROOT
TORSDOF 0
REMARK  Name = ../refined-set-2016/1fcy/1fcy_pocket.pdb
REMARK  258 active torsions:
REMARK  status: ('A' for Active; 'I' for Inactive)
REMARK    1  A    between atoms: _1  and  _3
REMARK    2  A    between atoms: _3  and  _4
REMARK    3  A    between atoms: _3  and  _6
REMARK    4  A    between atoms: _6  and  _7
REMARK    5  A    between atoms: _10  and  _12
REMARK    6  A    between atoms: _12  and  _13
REMARK    7  A    between atoms: _12  and  _15
REMARK    8  A    between atoms: _15  and  _16
REMARK    9  A    between atoms: _23  and  _24
REMARK   10  A    between atoms: _29  and  _31
REMARK   11  A    between atoms: _31  and  _32
REMARK   12  A    between atoms: _31  and  _34
REMARK   13  A    between atoms: _34  and  _35
REMARK   14  A    between atoms: _38  and  _40
REMARK   15  A    between atoms: _40  and  _41
REMARK   16  A    between atoms: _40  and  _43
REMARK   17  A    between atoms: _43  and  _44
REMARK   18  A    between atoms: _54  and  _56
REMARK   19  A    between atoms: _56  and  _57
REMARK   20  A    between atoms: _56  and  _59
REMARK   21  A    between atoms: _59  and  _60
REMARK   22  A    between atoms: _60  and  _61
REMARK   23  A    between atoms: _61  and  _62
REMARK   24  A    between atoms: _62  and  _63
REMARK   25  A    between atoms: _67  and  _69
REMARK   26  A    between atoms: _69  and  _70
REMARK   27  A    between atoms: _69  and  _72
REMARK   28  A    between atoms: _72  and  _73
REMARK   29  A    between atoms: _79  and  _81
REMARK   30  A    between atoms: _81  and  _82
REMARK   31  A    between atoms: _81  and  _84
REMARK   32  A    between atoms: _84  and  _85
REMARK   33  A    between atoms: _87  and  _89
REMARK   34  A    between atoms: _89  and  _90
REMARK   35  A    between atoms: _89  and  _92
REMARK   36  A    between atoms: _92  and  _93
REMARK   37  A    between atoms: _93  and  _94
REMARK   38  A    between atoms: _97  and  _99
REMARK   39  A    between atoms: _99  and  _100
REMARK   40  A    between atoms: _99  and  _102
REMARK   41  A    between atoms: _102  and  _103
REMARK   42  A    between atoms: _106  and  _108
REMARK   43  A    between atoms: _108  and  _109
REMARK   44  A    between atoms: _112  and  _114
REMARK   45  A    between atoms: _114  and  _115
REMARK   46  A    between atoms: _114  and  _117
REMARK   47  A    between atoms: _117  and  _118
REMARK   48  A    between atoms: _121  and  _123
REMARK   49  A    between atoms: _123  and  _124
REMARK   50  A    between atoms: _123  and  _126
REMARK   51  A    between atoms: _127  and  _128
REMARK   52  A    between atoms: _128  and  _129
REMARK   53  A    between atoms: _129  and  _130
REMARK   54  A    between atoms: _134  and  _136
REMARK   55  A    between atoms: _136  and  _137
REMARK   56  A    between atoms: _136  and  _139
REMARK   57  A    between atoms: _141  and  _143
REMARK   58  A    between atoms: _143  and  _144
REMARK   59  A    between atoms: _143  and  _146
REMARK   60  A    between atoms: _146  and  _147
REMARK   61  A    between atoms: _150  and  _152
REMARK   62  A    between atoms: _152  and  _153
REMARK   63  A    between atoms: _152  and  _155
REMARK   64  A    between atoms: _155  and  _156
REMARK   65  A    between atoms: _156  and  _157
REMARK   66  A    between atoms: _157  and  _158
REMARK   67  A    between atoms: _158  and  _159
REMARK   68  A    between atoms: _163  and  _165
REMARK   69  A    between atoms: _165  and  _166
REMARK   70  A    between atoms: _165  and  _168
REMARK   71  A    between atoms: _168  and  _169
REMARK   72  A    between atoms: _172  and  _174
REMARK   73  A    between atoms: _174  and  _175
REMARK   74  A    between atoms: _174  and  _177
REMARK   75  A    between atoms: _179  and  _181
REMARK   76  A    between atoms: _181  and  _182
REMARK   77  A    between atoms: _181  and  _184
REMARK   78  A    between atoms: _184  and  _185
REMARK   79  A    between atoms: _188  and  _190
REMARK   80  A    between atoms: _190  and  _191
REMARK   81  A    between atoms: _190  and  _193
REMARK   82  A    between atoms: _193  and  _194
REMARK   83  A    between atoms: _197  and  _199
REMARK   84  A    between atoms: _199  and  _200
REMARK   85  A    between atoms: _199  and  _202
REMARK   86  A    between atoms: _202  and  _203
REMARK   87  A    between atoms: _206  and  _208
REMARK   88  A    between atoms: _208  and  _209
REMARK   89  A    between atoms: _208  and  _211
REMARK   90  A    between atoms: _211  and  _212
REMARK   91  A    between atoms: _215  and  _217
REMARK   92  A    between atoms: _217  and  _218
REMARK   93  A    between atoms: _217  and  _220
REMARK   94  A    between atoms: _220  and  _221
REMARK   95  A    between atoms: _221  and  _222
REMARK   96  A    between atoms: _224  and  _226
REMARK   97  A    between atoms: _226  and  _227
REMARK   98  A    between atoms: _226  and  _229
REMARK   99  A    between atoms: _229  and  _230
REMARK  100  A    between atoms: _233  and  _235
REMARK  101  A    between atoms: _235  and  _236
REMARK  102  A    between atoms: _235  and  _238
REMARK  103  A    between atoms: _238  and  _239
REMARK  104  A    between atoms: _239  and  _240
REMARK  105  A    between atoms: _240  and  _241
REMARK  106  A    between atoms: _250  and  _252
REMARK  107  A    between atoms: _252  and  _253
REMARK  108  A    between atoms: _252  and  _255
REMARK  109  A    between atoms: _255  and  _256
REMARK  110  A    between atoms: _259  and  _261
REMARK  111  A    between atoms: _261  and  _262
REMARK  112  A    between atoms: _261  and  _264
REMARK  113  A    between atoms: _266  and  _268
REMARK  114  A    between atoms: _268  and  _269
REMARK  115  A    between atoms: _268  and  _271
REMARK  116  A    between atoms: _271  and  _272
REMARK  117  A    between atoms: _275  and  _277
REMARK  118  A    between atoms: _277  and  _278
REMARK  119  A    between atoms: _277  and  _280
REMARK  120  A    between atoms: _280  and  _281
REMARK  121  A    between atoms: _281  and  _282
REMARK  122  A    between atoms: _282  and  _283
REMARK  123  A    between atoms: _292  and  _294
REMARK  124  A    between atoms: _294  and  _295
REMARK  125  A    between atoms: _294  and  _297
REMARK  126  A    between atoms: _297  and  _298
REMARK  127  A    between atoms: _298  and  _299
REMARK  128  A    between atoms: _301  and  _303
REMARK  129  A    between atoms: _303  and  _304
REMARK  130  A    between atoms: _303  and  _306
REMARK  131  A    between atoms: _306  and  _307
REMARK  132  A    between atoms: _310  and  _312
REMARK  133  A    between atoms: _312  and  _313
REMARK  134  A    between atoms: _312  and  _315
REMARK  135  A    between atoms: _315  and  _316
REMARK  136  A    between atoms: _322  and  _324
REMARK  137  A    between atoms: _324  and  _325
REMARK  138  A    between atoms: _324  and  _327
REMARK  139  A    between atoms: _327  and  _328
REMARK  140  A    between atoms: _330  and  _332
REMARK  141  A    between atoms: _332  and  _333
REMARK  142  A    between atoms: _332  and  _335
REMARK  143  A    between atoms: _335  and  _336
REMARK  144  A    between atoms: _339  and  _341
REMARK  145  A    between atoms: _341  and  _342
REMARK  146  A    between atoms: _344  and  _346
REMARK  147  A    between atoms: _346  and  _347
REMARK  148  A    between atoms: _346  and  _349
REMARK  149  A    between atoms: _349  and  _350
REMARK  150  A    between atoms: _353  and  _355
REMARK  151  A    between atoms: _355  and  _356
REMARK  152  A    between atoms: _355  and  _358
REMARK  153  A    between atoms: _358  and  _359
REMARK  154  A    between atoms: _359  and  _360
REMARK  155  A    between atoms: _362  and  _364
REMARK  156  A    between atoms: _364  and  _365
REMARK  157  A    between atoms: _364  and  _367
REMARK  158  A    between atoms: _367  and  _368
REMARK  159  A    between atoms: _373  and  _375
REMARK  160  A    between atoms: _375  and  _376
REMARK  161  A    between atoms: _379  and  _381
REMARK  162  A    between atoms: _381  and  _382
REMARK  163  A    between atoms: _384  and  _386
REMARK  164  A    between atoms: _386  and  _387
REMARK  165  A    between atoms: _386  and  _389
REMARK  166  A    between atoms: _389  and  _390
REMARK  167  A    between atoms: _396  and  _398
REMARK  168  A    between atoms: _398  and  _399
REMARK  169  A    between atoms: _401  and  _403
REMARK  170  A    between atoms: _403  and  _404
REMARK  171  A    between atoms: _403  and  _406
REMARK  172  A    between atoms: _406  and  _407
REMARK  173  A    between atoms: _410  and  _412
REMARK  174  A    between atoms: _412  and  _413
REMARK  175  A    between atoms: _412  and  _415
REMARK  176  A    between atoms: _415  and  _416
REMARK  177  A    between atoms: _419  and  _421
REMARK  178  A    between atoms: _421  and  _422
REMARK  179  A    between atoms: _421  and  _424
REMARK  180  A    between atoms: _427  and  _429
REMARK  181  A    between atoms: _429  and  _430
REMARK  182  A    between atoms: _429  and  _432
REMARK  183  A    between atoms: _432  and  _433
REMARK  184  A    between atoms: _436  and  _438
REMARK  185  A    between atoms: _438  and  _439
REMARK  186  A    between atoms: _438  and  _441
REMARK  187  A    between atoms: _441  and  _442
REMARK  188  A    between atoms: _444  and  _446
REMARK  189  A    between atoms: _446  and  _447
REMARK  190  A    between atoms: _446  and  _449
REMARK  191  A    between atoms: _449  and  _450
REMARK  192  A    between atoms: _450  and  _451
REMARK  193  A    between atoms: _451  and  _452
REMARK  194  A    between atoms: _452  and  _453
REMARK  195  A    between atoms: _457  and  _459
REMARK  196  A    between atoms: _459  and  _460
REMARK  197  A    between atoms: _462  and  _464
REMARK  198  A    between atoms: _464  and  _465
REMARK  199  A    between atoms: _468  and  _470
REMARK  200  A    between atoms: _470  and  _471
REMARK  201  A    between atoms: _470  and  _473
REMARK  202  A    between atoms: _474  and  _475
REMARK  203  A    between atoms: _478  and  _480
REMARK  204  A    between atoms: _480  and  _481
REMARK  205  A    between atoms: _480  and  _483
REMARK  206  A    between atoms: _483  and  _484
REMARK  207  A    between atoms: _484  and  _485
REMARK  208  A    between atoms: _485  and  _486
REMARK  209  A    between atoms: _495  and  _497
REMARK  210  A    between atoms: _497  and  _498
REMARK  211  A    between atoms: _501  and  _503
REMARK  212  A    between atoms: _503  and  _504
REMARK  213  A    between atoms: _503  and  _506
REMARK  214  A    between atoms: _506  and  _507
REMARK  215  A    between atoms: _510  and  _512
REMARK  216  A    between atoms: _512  and  _513
REMARK  217  A    between atoms: _512  and  _515
REMARK  218  A    between atoms: _515  and  _516
REMARK  219  A    between atoms: _519  and  _521
REMARK  220  A    between atoms: _521  and  _522
REMARK  221  A    between atoms: _521  and  _524
REMARK  222  A    between atoms: _524  and  _525
REMARK  223  A    between atoms: _528  and  _530
REMARK  224  A    between atoms: _530  and  _531
REMARK  225  A    between atoms: _530  and  _533
REMARK  226  A    between atoms: _533  and  _534
REMARK  227  A    between atoms: _534  and  _535
REMARK  228  A    between atoms: _535  and  _536
REMARK  229  A    between atoms: _536  and  _537
REMARK  230  A    between atoms: _541  and  _543
REMARK  231  A    between atoms: _543  and  _544
REMARK  232  A    between atoms: _543  and  _546
REMARK  233  A    between atoms: _546  and  _547
REMARK  234  A    between atoms: _550  and  _552
REMARK  235  A    between atoms: _552  and  _553
REMARK  236  A    between atoms: _552  and  _555
REMARK  237  A    between atoms: _555  and  _556
REMARK  238  A    between atoms: _556  and  _557
REMARK  239  A    between atoms: _560  and  _561
REMARK  240  A    between atoms: _566  and  _568
REMARK  241  A    between atoms: _568  and  _569
REMARK  242  A    between atoms: _568  and  _571
REMARK  243  A    between atoms: _571  and  _572
REMARK  244  A    between atoms: _575  and  _577
REMARK  245  A    between atoms: _577  and  _578
REMARK  246  A    between atoms: _577  and  _580
REMARK  247  A    between atoms: _580  and  _581
REMARK  248  A    between atoms: _581  and  _582
REMARK  249  A    between atoms: _582  and  _583
REMARK  250  A    between atoms: _592  and  _594
REMARK  251  A    between atoms: _594  and  _595
REMARK  252  A    between atoms: _594  and  _597
REMARK  253  A    between atoms: _597  and  _598
REMARK  254  A    between atoms: _598  and  _599
REMARK  255  A    between atoms: _601  and  _603
REMARK  256  A    between atoms: _603  and  _604
REMARK  257  A    between atoms: _603  and  _606
REMARK  258  A    between atoms: _606  and  _607
REMARK                            x       y       z     vdW  Elec       q    Type
REMARK                         _______ _______ _______ _____ _____    ______ ____
ROOT
ATOM      1  O   HOH     1      32.350  22.479  93.564  0.00  0.00    +0.000 OA
ENDROOT
TORSDOF 0
REMARK  Name = ../refined-set-2016/1fcy/1fcy_pocket.pdb
REMARK  258 active torsions:
REMARK  status: ('A' for Active; 'I' for Inactive)
REMARK    1  A    between atoms: _1  and  _3
REMARK    2  A    between atoms: _3  and  _4
REMARK    3  A    between atoms: _3  and  _6
REMARK    4  A    between atoms: _6  and  _7
REMARK    5  A    between atoms: _10  and  _12
REMARK    6  A    between atoms: _12  and  _13
REMARK    7  A    between atoms: _12  and  _15
REMARK    8  A    between atoms: _15  and  _16
REMARK    9  A    between atoms: _23  and  _24
REMARK   10  A    between atoms: _29  and  _31
REMARK   11  A    between atoms: _31  and  _32
REMARK   12  A    between atoms: _31  and  _34
REMARK   13  A    between atoms: _34  and  _35
REMARK   14  A    between atoms: _38  and  _40
REMARK   15  A    between atoms: _40  and  _41
REMARK   16  A    between atoms: _40  and  _43
REMARK   17  A    between atoms: _43  and  _44
REMARK   18  A    between atoms: _54  and  _56
REMARK   19  A    between atoms: _56  and  _57
REMARK   20  A    between atoms: _56  and  _59
REMARK   21  A    between atoms: _59  and  _60
REMARK   22  A    between atoms: _60  and  _61
REMARK   23  A    between atoms: _61  and  _62
REMARK   24  A    between atoms: _62  and  _63
REMARK   25  A    between atoms: _67  and  _69
REMARK   26  A    between atoms: _69  and  _70
REMARK   27  A    between atoms: _69  and  _72
REMARK   28  A    between atoms: _72  and  _73
REMARK   29  A    between atoms: _79  and  _81
REMARK   30  A    between atoms: _81  and  _82
REMARK   31  A    between atoms: _81  and  _84
REMARK   32  A    between atoms: _84  and  _85
REMARK   33  A    between atoms: _87  and  _89
REMARK   34  A    between atoms: _89  and  _90
REMARK   35  A    between atoms: _89  and  _92
REMARK   36  A    between atoms: _92  and  _93
REMARK   37  A    between atoms: _93  and  _94
REMARK   38  A    between atoms: _97  and  _99
REMARK   39  A    between atoms: _99  and  _100
REMARK   40  A    between atoms: _99  and  _102
REMARK   41  A    between atoms: _102  and  _103
REMARK   42  A    between atoms: _106  and  _108
REMARK   43  A    between atoms: _108  and  _109
REMARK   44  A    between atoms: _112  and  _114
REMARK   45  A    between atoms: _114  and  _115
REMARK   46  A    between atoms: _114  and  _117
REMARK   47  A    between atoms: _117  and  _118
REMARK   48  A    between atoms: _121  and  _123
REMARK   49  A    between atoms: _123  and  _124
REMARK   50  A    between atoms: _123  and  _126
REMARK   51  A    between atoms: _127  and  _128
REMARK   52  A    between atoms: _128  and  _129
REMARK   53  A    between atoms: _129  and  _130
REMARK   54  A    between atoms: _134  and  _136
REMARK   55  A    between atoms: _136  and  _137
REMARK   56  A    between atoms: _136  and  _139
REMARK   57  A    between atoms: _141  and  _143
REMARK   58  A    between atoms: _143  and  _144
REMARK   59  A    between atoms: _143  and  _146
REMARK   60  A    between atoms: _146  and  _147
REMARK   61  A    between atoms: _150  and  _152
REMARK   62  A    between atoms: _152  and  _153
REMARK   63  A    between atoms: _152  and  _155
REMARK   64  A    between atoms: _155  and  _156
REMARK   65  A    between atoms: _156  and  _157
REMARK   66  A    between atoms: _157  and  _158
REMARK   67  A    between atoms: _158  and  _159
REMARK   68  A    between atoms: _163  and  _165
REMARK   69  A    between atoms: _165  and  _166
REMARK   70  A    between atoms: _165  and  _168
REMARK   71  A    between atoms: _168  and  _169
REMARK   72  A    between atoms: _172  and  _174
REMARK   73  A    between atoms: _174  and  _175
REMARK   74  A    between atoms: _174  and  _177
REMARK   75  A    between atoms: _179  and  _181
REMARK   76  A    between atoms: _181  and  _182
REMARK   77  A    between atoms: _181  and  _184
REMARK   78  A    between atoms: _184  and  _185
REMARK   79  A    between atoms: _188  and  _190
REMARK   80  A    between atoms: _190  and  _191
REMARK   81  A    between atoms: _190  and  _193
REMARK   82  A    between atoms: _193  and  _194
REMARK   83  A    between atoms: _197  and  _199
REMARK   84  A    between atoms: _199  and  _200
REMARK   85  A    between atoms: _199  and  _202
REMARK   86  A    between atoms: _202  and  _203
REMARK   87  A    between atoms: _206  and  _208
REMARK   88  A    between atoms: _208  and  _209
REMARK   89  A    between atoms: _208  and  _211
REMARK   90  A    between atoms: _211  and  _212
REMARK   91  A    between atoms: _215  and  _217
REMARK   92  A    between atoms: _217  and  _218
REMARK   93  A    between atoms: _217  and  _220
REMARK   94  A    between atoms: _220  and  _221
REMARK   95  A    between atoms: _221  and  _222
REMARK   96  A    between atoms: _224  and  _226
REMARK   97  A    between atoms: _226  and  _227
REMARK   98  A    between atoms: _226  and  _229
REMARK   99  A    between atoms: _229  and  _230
REMARK  100  A    between atoms: _233  and  _235
REMARK  101  A    between atoms: _235  and  _236
REMARK  102  A    between atoms: _235  and  _238
REMARK  103  A    between atoms: _238  and  _239
REMARK  104  A    between atoms: _239  and  _240
REMARK  105  A    between atoms: _240  and  _241
REMARK  106  A    between atoms: _250  and  _252
REMARK  107  A    between atoms: _252  and  _253
REMARK  108  A    between atoms: _252  and  _255
REMARK  109  A    between atoms: _255  and  _256
REMARK  110  A    between atoms: _259  and  _261
REMARK  111  A    between atoms: _261  and  _262
REMARK  112  A    between atoms: _261  and  _264
REMARK  113  A    between atoms: _266  and  _268
REMARK  114  A    between atoms: _268  and  _269
REMARK  115  A    between atoms: _268  and  _271
REMARK  116  A    between atoms: _271  and  _272
REMARK  117  A    between atoms: _275  and  _277
REMARK  118  A    between atoms: _277  and  _278
REMARK  119  A    between atoms: _277  and  _280
REMARK  120  A    between atoms: _280  and  _281
REMARK  121  A    between atoms: _281  and  _282
REMARK  122  A    between atoms: _282  and  _283
REMARK  123  A    between atoms: _292  and  _294
REMARK  124  A    between atoms: _294  and  _295
REMARK  125  A    between atoms: _294  and  _297
REMARK  126  A    between atoms: _297  and  _298
REMARK  127  A    between atoms: _298  and  _299
REMARK  128  A    between atoms: _301  and  _303
REMARK  129  A    between atoms: _303  and  _304
REMARK  130  A    between atoms: _303  and  _306
REMARK  131  A    between atoms: _306  and  _307
REMARK  132  A    between atoms: _310  and  _312
REMARK  133  A    between atoms: _312  and  _313
REMARK  134  A    between atoms: _312  and  _315
REMARK  135  A    between atoms: _315  and  _316
REMARK  136  A    between atoms: _322  and  _324
REMARK  137  A    between atoms: _324  and  _325
REMARK  138  A    between atoms: _324  and  _327
REMARK  139  A    between atoms: _327  and  _328
REMARK  140  A    between atoms: _330  and  _332
REMARK  141  A    between atoms: _332  and  _333
REMARK  142  A    between atoms: _332  and  _335
REMARK  143  A    between atoms: _335  and  _336
REMARK  144  A    between atoms: _339  and  _341
REMARK  145  A    between atoms: _341  and  _342
REMARK  146  A    between atoms: _344  and  _346
REMARK  147  A    between atoms: _346  and  _347
REMARK  148  A    between atoms: _346  and  _349
REMARK  149  A    between atoms: _349  and  _350
REMARK  150  A    between atoms: _353  and  _355
REMARK  151  A    between atoms: _355  and  _356
REMARK  152  A    between atoms: _355  and  _358
REMARK  153  A    between atoms: _358  and  _359
REMARK  154  A    between atoms: _359  and  _360
REMARK  155  A    between atoms: _362  and  _364
REMARK  156  A    between atoms: _364  and  _365
REMARK  157  A    between atoms: _364  and  _367
REMARK  158  A    between atoms: _367  and  _368
REMARK  159  A    between atoms: _373  and  _375
REMARK  160  A    between atoms: _375  and  _376
REMARK  161  A    between atoms: _379  and  _381
REMARK  162  A    between atoms: _381  and  _382
REMARK  163  A    between atoms: _384  and  _386
REMARK  164  A    between atoms: _386  and  _387
REMARK  165  A    between atoms: _386  and  _389
REMARK  166  A    between atoms: _389  and  _390
REMARK  167  A    between atoms: _396  and  _398
REMARK  168  A    between atoms: _398  and  _399
REMARK  169  A    between atoms: _401  and  _403
REMARK  170  A    between atoms: _403  and  _404
REMARK  171  A    between atoms: _403  and  _406
REMARK  172  A    between atoms: _406  and  _407
REMARK  173  A    between atoms: _410  and  _412
REMARK  174  A    between atoms: _412  and  _413
REMARK  175  A    between atoms: _412  and  _415
REMARK  176  A    between atoms: _415  and  _416
REMARK  177  A    between atoms: _419  and  _421
REMARK  178  A    between atoms: _421  and  _422
REMARK  179  A    between atoms: _421  and  _424
REMARK  180  A    between atoms: _427  and  _429
REMARK  181  A    between atoms: _429  and  _430
REMARK  182  A    between atoms: _429  and  _432
REMARK  183  A    between atoms: _432  and  _433
REMARK  184  A    between atoms: _436  and  _438
REMARK  185  A    between atoms: _438  and  _439
REMARK  186  A    between atoms: _438  and  _441
REMARK  187  A    between atoms: _441  and  _442
REMARK  188  A    between atoms: _444  and  _446
REMARK  189  A    between atoms: _446  and  _447
REMARK  190  A    between atoms: _446  and  _449
REMARK  191  A    between atoms: _449  and  _450
REMARK  192  A    between atoms: _450  and  _451
REMARK  193  A    between atoms: _451  and  _452
REMARK  194  A    between atoms: _452  and  _453
REMARK  195  A    between atoms: _457  and  _459
REMARK  196  A    between atoms: _459  and  _460
REMARK  197  A    between atoms: _462  and  _464
REMARK  198  A    between atoms: _464  and  _465
REMARK  199  A    between atoms: _468  and  _470
REMARK  200  A    between atoms: _470  and  _471
REMARK  201  A    between atoms: _470  and  _473
REMARK  202  A    between atoms: _474  and  _475
REMARK  203  A    between atoms: _478  and  _480
REMARK  204  A    between atoms: _480  and  _481
REMARK  205  A    between atoms: _480  and  _483
REMARK  206  A    between atoms: _483  and  _484
REMARK  207  A    between atoms: _484  and  _485
REMARK  208  A    between atoms: _485  and  _486
REMARK  209  A    between atoms: _495  and  _497
REMARK  210  A    between atoms: _497  and  _498
REMARK  211  A    between atoms: _501  and  _503
REMARK  212  A    between atoms: _503  and  _504
REMARK  213  A    between atoms: _503  and  _506
REMARK  214  A    between atoms: _506  and  _507
REMARK  215  A    between atoms: _510  and  _512
REMARK  216  A    between atoms: _512  and  _513
REMARK  217  A    between atoms: _512  and  _515
REMARK  218  A    between atoms: _515  and  _516
REMARK  219  A    between atoms: _519  and  _521
REMARK  220  A    between atoms: _521  and  _522
REMARK  221  A    between atoms: _521  and  _524
REMARK  222  A    between atoms: _524  and  _525
REMARK  223  A    between atoms: _528  and  _530
REMARK  224  A    between atoms: _530  and  _531
REMARK  225  A    between atoms: _530  and  _533
REMARK  226  A    between atoms: _533  and  _534
REMARK  227  A    between atoms: _534  and  _535
REMARK  228  A    between atoms: _535  and  _536
REMARK  229  A    between atoms: _536  and  _537
REMARK  230  A    between atoms: _541  and  _543
REMARK  231  A    between atoms: _543  and  _544
REMARK  232  A    between atoms: _543  and  _546
REMARK  233  A    between atoms: _546  and  _547
REMARK  234  A    between atoms: _550  and  _552
REMARK  235  A    between atoms: _552  and  _553
REMARK  236  A    between atoms: _552  and  _555
REMARK  237  A    between atoms: _555  and  _556
REMARK  238  A    between atoms: _556  and  _557
REMARK  239  A    between atoms: _560  and  _561
REMARK  240  A    between atoms: _566  and  _568
REMARK  241  A    between atoms: _568  and  _569
REMARK  242  A    between atoms: _568  and  _571
REMARK  243  A    between atoms: _571  and  _572
REMARK  244  A    between atoms: _575  and  _577
REMARK  245  A    between atoms: _577  and  _578
REMARK  246  A    between atoms: _577  and  _580
REMARK  247  A    between atoms: _580  and  _581
REMARK  248  A    between atoms: _581  and  _582
REMARK  249  A    between atoms: _582  and  _583
REMARK  250  A    between atoms: _592  and  _594
REMARK  251  A    between atoms: _594  and  _595
REMARK  252  A    between atoms: _594  and  _597
REMARK  253  A    between atoms: _597  and  _598
REMARK  254  A    between atoms: _598  and  _599
REMARK  255  A    between atoms: _601  and  _603
REMARK  256  A    between atoms: _603  and  _604
REMARK  257  A    between atoms: _603  and  _606
REMARK  258  A    between atoms: _606  and  _607
REMARK                            x       y       z     vdW  Elec       q    Type
REMARK                         _______ _______ _______ _____ _____    ______ ____
ROOT
ATOM      1  O   HOH     1      35.644  21.570  88.436  0.00  0.00    +0.000 OA
ENDROOT
TORSDOF 0
REMARK  Name = ../refined-set-2016/1fcy/1fcy_pocket.pdb
REMARK  258 active torsions:
REMARK  status: ('A' for Active; 'I' for Inactive)
REMARK    1  A    between atoms: _1  and  _3
REMARK    2  A    between atoms: _3  and  _4
REMARK    3  A    between atoms: _3  and  _6
REMARK    4  A    between atoms: _6  and  _7
REMARK    5  A    between atoms: _10  and  _12
REMARK    6  A    between atoms: _12  and  _13
REMARK    7  A    between atoms: _12  and  _15
REMARK    8  A    between atoms: _15  and  _16
REMARK    9  A    between atoms: _23  and  _24
REMARK   10  A    between atoms: _29  and  _31
REMARK   11  A    between atoms: _31  and  _32
REMARK   12  A    between atoms: _31  and  _34
REMARK   13  A    between atoms: _34  and  _35
REMARK   14  A    between atoms: _38  and  _40
REMARK   15  A    between atoms: _40  and  _41
REMARK   16  A    between atoms: _40  and  _43
REMARK   17  A    between atoms: _43  and  _44
REMARK   18  A    between atoms: _54  and  _56
REMARK   19  A    between atoms: _56  and  _57
REMARK   20  A    between atoms: _56  and  _59
REMARK   21  A    between atoms: _59  and  _60
REMARK   22  A    between atoms: _60  and  _61
REMARK   23  A    between atoms: _61  and  _62
REMARK   24  A    between atoms: _62  and  _63
REMARK   25  A    between atoms: _67  and  _69
REMARK   26  A    between atoms: _69  and  _70
REMARK   27  A    between atoms: _69  and  _72
REMARK   28  A    between atoms: _72  and  _73
REMARK   29  A    between atoms: _79  and  _81
REMARK   30  A    between atoms: _81  and  _82
REMARK   31  A    between atoms: _81  and  _84
REMARK   32  A    between atoms: _84  and  _85
REMARK   33  A    between atoms: _87  and  _89
REMARK   34  A    between atoms: _89  and  _90
REMARK   35  A    between atoms: _89  and  _92
REMARK   36  A    between atoms: _92  and  _93
REMARK   37  A    between atoms: _93  and  _94
REMARK   38  A    between atoms: _97  and  _99
REMARK   39  A    between atoms: _99  and  _100
REMARK   40  A    between atoms: _99  and  _102
REMARK   41  A    between atoms: _102  and  _103
REMARK   42  A    between atoms: _106  and  _108
REMARK   43  A    between atoms: _108  and  _109
REMARK   44  A    between atoms: _112  and  _114
REMARK   45  A    between atoms: _114  and  _115
REMARK   46  A    between atoms: _114  and  _117
REMARK   47  A    between atoms: _117  and  _118
REMARK   48  A    between atoms: _121  and  _123
REMARK   49  A    between atoms: _123  and  _124
REMARK   50  A    between atoms: _123  and  _126
REMARK   51  A    between atoms: _127  and  _128
REMARK   52  A    between atoms: _128  and  _129
REMARK   53  A    between atoms: _129  and  _130
REMARK   54  A    between atoms: _134  and  _136
REMARK   55  A    between atoms: _136  and  _137
REMARK   56  A    between atoms: _136  and  _139
REMARK   57  A    between atoms: _141  and  _143
REMARK   58  A    between atoms: _143  and  _144
REMARK   59  A    between atoms: _143  and  _146
REMARK   60  A    between atoms: _146  and  _147
REMARK   61  A    between atoms: _150  and  _152
REMARK   62  A    between atoms: _152  and  _153
REMARK   63  A    between atoms: _152  and  _155
REMARK   64  A    between atoms: _155  and  _156
REMARK   65  A    between atoms: _156  and  _157
REMARK   66  A    between atoms: _157  and  _158
REMARK   67  A    between atoms: _158  and  _159
REMARK   68  A    between atoms: _163  and  _165
REMARK   69  A    between atoms: _165  and  _166
REMARK   70  A    between atoms: _165  and  _168
REMARK   71  A    between atoms: _168  and  _169
REMARK   72  A    between atoms: _172  and  _174
REMARK   73  A    between atoms: _174  and  _175
REMARK   74  A    between atoms: _174  and  _177
REMARK   75  A    between atoms: _179  and  _181
REMARK   76  A    between atoms: _181  and  _182
REMARK   77  A    between atoms: _181  and  _184
REMARK   78  A    between atoms: _184  and  _185
REMARK   79  A    between atoms: _188  and  _190
REMARK   80  A    between atoms: _190  and  _191
REMARK   81  A    between atoms: _190  and  _193
REMARK   82  A    between atoms: _193  and  _194
REMARK   83  A    between atoms: _197  and  _199
REMARK   84  A    between atoms: _199  and  _200
REMARK   85  A    between atoms: _199  and  _202
REMARK   86  A    between atoms: _202  and  _203
REMARK   87  A    between atoms: _206  and  _208
REMARK   88  A    between atoms: _208  and  _209
REMARK   89  A    between atoms: _208  and  _211
REMARK   90  A    between atoms: _211  and  _212
REMARK   91  A    between atoms: _215  and  _217
REMARK   92  A    between atoms: _217  and  _218
REMARK   93  A    between atoms: _217  and  _220
REMARK   94  A    between atoms: _220  and  _221
REMARK   95  A    between atoms: _221  and  _222
REMARK   96  A    between atoms: _224  and  _226
REMARK   97  A    between atoms: _226  and  _227
REMARK   98  A    between atoms: _226  and  _229
REMARK   99  A    between atoms: _229  and  _230
REMARK  100  A    between atoms: _233  and  _235
REMARK  101  A    between atoms: _235  and  _236
REMARK  102  A    between atoms: _235  and  _238
REMARK  103  A    between atoms: _238  and  _239
REMARK  104  A    between atoms: _239  and  _240
REMARK  105  A    between atoms: _240  and  _241
REMARK  106  A    between atoms: _250  and  _252
REMARK  107  A    between atoms: _252  and  _253
REMARK  108  A    between atoms: _252  and  _255
REMARK  109  A    between atoms: _255  and  _256
REMARK  110  A    between atoms: _259  and  _261
REMARK  111  A    between atoms: _261  and  _262
REMARK  112  A    between atoms: _261  and  _264
REMARK  113  A    between atoms: _266  and  _268
REMARK  114  A    between atoms: _268  and  _269
REMARK  115  A    between atoms: _268  and  _271
REMARK  116  A    between atoms: _271  and  _272
REMARK  117  A    between atoms: _275  and  _277
REMARK  118  A    between atoms: _277  and  _278
REMARK  119  A    between atoms: _277  and  _280
REMARK  120  A    between atoms: _280  and  _281
REMARK  121  A    between atoms: _281  and  _282
REMARK  122  A    between atoms: _282  and  _283
REMARK  123  A    between atoms: _292  and  _294
REMARK  124  A    between atoms: _294  and  _295
REMARK  125  A    between atoms: _294  and  _297
REMARK  126  A    between atoms: _297  and  _298
REMARK  127  A    between atoms: _298  and  _299
REMARK  128  A    between atoms: _301  and  _303
REMARK  129  A    between atoms: _303  and  _304
REMARK  130  A    between atoms: _303  and  _306
REMARK  131  A    between atoms: _306  and  _307
REMARK  132  A    between atoms: _310  and  _312
REMARK  133  A    between atoms: _312  and  _313
REMARK  134  A    between atoms: _312  and  _315
REMARK  135  A    between atoms: _315  and  _316
REMARK  136  A    between atoms: _322  and  _324
REMARK  137  A    between atoms: _324  and  _325
REMARK  138  A    between atoms: _324  and  _327
REMARK  139  A    between atoms: _327  and  _328
REMARK  140  A    between atoms: _330  and  _332
REMARK  141  A    between atoms: _332  and  _333
REMARK  142  A    between atoms: _332  and  _335
REMARK  143  A    between atoms: _335  and  _336
REMARK  144  A    between atoms: _339  and  _341
REMARK  145  A    between atoms: _341  and  _342
REMARK  146  A    between atoms: _344  and  _346
REMARK  147  A    between atoms: _346  and  _347
REMARK  148  A    between atoms: _346  and  _349
REMARK  149  A    between atoms: _349  and  _350
REMARK  150  A    between atoms: _353  and  _355
REMARK  151  A    between atoms: _355  and  _356
REMARK  152  A    between atoms: _355  and  _358
REMARK  153  A    between atoms: _358  and  _359
REMARK  154  A    between atoms: _359  and  _360
REMARK  155  A    between atoms: _362  and  _364
REMARK  156  A    between atoms: _364  and  _365
REMARK  157  A    between atoms: _364  and  _367
REMARK  158  A    between atoms: _367  and  _368
REMARK  159  A    between atoms: _373  and  _375
REMARK  160  A    between atoms: _375  and  _376
REMARK  161  A    between atoms: _379  and  _381
REMARK  162  A    between atoms: _381  and  _382
REMARK  163  A    between atoms: _384  and  _386
REMARK  164  A    between atoms: _386  and  _387
REMARK  165  A    between atoms: _386  and  _389
REMARK  166  A    between atoms: _389  and  _390
REMARK  167  A    between atoms: _396  and  _398
REMARK  168  A    between atoms: _398  and  _399
REMARK  169  A    between atoms: _401  and  _403
REMARK  170  A    between atoms: _403  and  _404
REMARK  171  A    between atoms: _403  and  _406
REMARK  172  A    between atoms: _406  and  _407
REMARK  173  A    between atoms: _410  and  _412
REMARK  174  A    between atoms: _412  and  _413
REMARK  175  A    between atoms: _412  and  _415
REMARK  176  A    between atoms: _415  and  _416
REMARK  177  A    between atoms: _419  and  _421
REMARK  178  A    between atoms: _421  and  _422
REMARK  179  A    between atoms: _421  and  _424
REMARK  180  A    between atoms: _427  and  _429
REMARK  181  A    between atoms: _429  and  _430
REMARK  182  A    between atoms: _429  and  _432
REMARK  183  A    between atoms: _432  and  _433
REMARK  184  A    between atoms: _436  and  _438
REMARK  185  A    between atoms: _438  and  _439
REMARK  186  A    between atoms: _438  and  _441
REMARK  187  A    between atoms: _441  and  _442
REMARK  188  A    between atoms: _444  and  _446
REMARK  189  A    between atoms: _446  and  _447
REMARK  190  A    between atoms: _446  and  _449
REMARK  191  A    between atoms: _449  and  _450
REMARK  192  A    between atoms: _450  and  _451
REMARK  193  A    between atoms: _451  and  _452
REMARK  194  A    between atoms: _452  and  _453
REMARK  195  A    between atoms: _457  and  _459
REMARK  196  A    between atoms: _459  and  _460
REMARK  197  A    between atoms: _462  and  _464
REMARK  198  A    between atoms: _464  and  _465
REMARK  199  A    between atoms: _468  and  _470
REMARK  200  A    between atoms: _470  and  _471
REMARK  201  A    between atoms: _470  and  _473
REMARK  202  A    between atoms: _474  and  _475
REMARK  203  A    between atoms: _478  and  _480
REMARK  204  A    between atoms: _480  and  _481
REMARK  205  A    between atoms: _480  and  _483
REMARK  206  A    between atoms: _483  and  _484
REMARK  207  A    between atoms: _484  and  _485
REMARK  208  A    between atoms: _485  and  _486
REMARK  209  A    between atoms: _495  and  _497
REMARK  210  A    between atoms: _497  and  _498
REMARK  211  A    between atoms: _501  and  _503
REMARK  212  A    between atoms: _503  and  _504
REMARK  213  A    between atoms: _503  and  _506
REMARK  214  A    between atoms: _506  and  _507
REMARK  215  A    between atoms: _510  and  _512
REMARK  216  A    between atoms: _512  and  _513
REMARK  217  A    between atoms: _512  and  _515
REMARK  218  A    between atoms: _515  and  _516
REMARK  219  A    between atoms: _519  and  _521
REMARK  220  A    between atoms: _521  and  _522
REMARK  221  A    between atoms: _521  and  _524
REMARK  222  A    between atoms: _524  and  _525
REMARK  223  A    between atoms: _528  and  _530
REMARK  224  A    between atoms: _530  and  _531
REMARK  225  A    between atoms: _530  and  _533
REMARK  226  A    between atoms: _533  and  _534
REMARK  227  A    between atoms: _534  and  _535
REMARK  228  A    between atoms: _535  and  _536
REMARK  229  A    between atoms: _536  and  _537
REMARK  230  A    between atoms: _541  and  _543
REMARK  231  A    between atoms: _543  and  _544
REMARK  232  A    between atoms: _543  and  _546
REMARK  233  A    between atoms: _546  and  _547
REMARK  234  A    between atoms: _550  and  _552
REMARK  235  A    between atoms: _552  and  _553
REMARK  236  A    between atoms: _552  and  _555
REMARK  237  A    between atoms: _555  and  _556
REMARK  238  A    between atoms: _556  and  _557
REMARK  239  A    between atoms: _560  and  _561
REMARK  240  A    between atoms: _566  and  _568
REMARK  241  A    between atoms: _568  and  _569
REMARK  242  A    between atoms: _568  and  _571
REMARK  243  A    between atoms: _571  and  _572
REMARK  244  A    between atoms: _575  and  _577
REMARK  245  A    between atoms: _577  and  _578
REMARK  246  A    between atoms: _577  and  _580
REMARK  247  A    between atoms: _580  and  _581
REMARK  248  A    between atoms: _581  and  _582
REMARK  249  A    between atoms: _582  and  _583
REMARK  250  A    between atoms: _592  and  _594
REMARK  251  A    between atoms: _594  and  _595
REMARK  252  A    between atoms: _594  and  _597
REMARK  253  A    between atoms: _597  and  _598
REMARK  254  A    between atoms: _598  and  _599
REMARK  255  A    between atoms: _601  and  _603
REMARK  256  A    between atoms: _603  and  _604
REMARK  257  A    between atoms: _603  and  _606
REMARK  258  A    between atoms: _606  and  _607
REMARK                            x       y       z     vdW  Elec       q    Type
REMARK                         _______ _______ _______ _____ _____    ______ ____
ROOT
ATOM      1  O   HOH     1      41.006  14.301  72.548  0.00  0.00    +0.000 OA
ENDROOT
TORSDOF 0
REMARK  Name = ../refined-set-2016/1fcy/1fcy_pocket.pdb
REMARK  258 active torsions:
REMARK  status: ('A' for Active; 'I' for Inactive)
REMARK    1  A    between atoms: _1  and  _3
REMARK    2  A    between atoms: _3  and  _4
REMARK    3  A    between atoms: _3  and  _6
REMARK    4  A    between atoms: _6  and  _7
REMARK    5  A    between atoms: _10  and  _12
REMARK    6  A    between atoms: _12  and  _13
REMARK    7  A    between atoms: _12  and  _15
REMARK    8  A    between atoms: _15  and  _16
REMARK    9  A    between atoms: _23  and  _24
REMARK   10  A    between atoms: _29  and  _31
REMARK   11  A    between atoms: _31  and  _32
REMARK   12  A    between atoms: _31  and  _34
REMARK   13  A    between atoms: _34  and  _35
REMARK   14  A    between atoms: _38  and  _40
REMARK   15  A    between atoms: _40  and  _41
REMARK   16  A    between atoms: _40  and  _43
REMARK   17  A    between atoms: _43  and  _44
REMARK   18  A    between atoms: _54  and  _56
REMARK   19  A    between atoms: _56  and  _57
REMARK   20  A    between atoms: _56  and  _59
REMARK   21  A    between atoms: _59  and  _60
REMARK   22  A    between atoms: _60  and  _61
REMARK   23  A    between atoms: _61  and  _62
REMARK   24  A    between atoms: _62  and  _63
REMARK   25  A    between atoms: _67  and  _69
REMARK   26  A    between atoms: _69  and  _70
REMARK   27  A    between atoms: _69  and  _72
REMARK   28  A    between atoms: _72  and  _73
REMARK   29  A    between atoms: _79  and  _81
REMARK   30  A    between atoms: _81  and  _82
REMARK   31  A    between atoms: _81  and  _84
REMARK   32  A    between atoms: _84  and  _85
REMARK   33  A    between atoms: _87  and  _89
REMARK   34  A    between atoms: _89  and  _90
REMARK   35  A    between atoms: _89  and  _92
REMARK   36  A    between atoms: _92  and  _93
REMARK   37  A    between atoms: _93  and  _94
REMARK   38  A    between atoms: _97  and  _99
REMARK   39  A    between atoms: _99  and  _100
REMARK   40  A    between atoms: _99  and  _102
REMARK   41  A    between atoms: _102  and  _103
REMARK   42  A    between atoms: _106  and  _108
REMARK   43  A    between atoms: _108  and  _109
REMARK   44  A    between atoms: _112  and  _114
REMARK   45  A    between atoms: _114  and  _115
REMARK   46  A    between atoms: _114  and  _117
REMARK   47  A    between atoms: _117  and  _118
REMARK   48  A    between atoms: _121  and  _123
REMARK   49  A    between atoms: _123  and  _124
REMARK   50  A    between atoms: _123  and  _126
REMARK   51  A    between atoms: _127  and  _128
REMARK   52  A    between atoms: _128  and  _129
REMARK   53  A    between atoms: _129  and  _130
REMARK   54  A    between atoms: _134  and  _136
REMARK   55  A    between atoms: _136  and  _137
REMARK   56  A    between atoms: _136  and  _139
REMARK   57  A    between atoms: _141  and  _143
REMARK   58  A    between atoms: _143  and  _144
REMARK   59  A    between atoms: _143  and  _146
REMARK   60  A    between atoms: _146  and  _147
REMARK   61  A    between atoms: _150  and  _152
REMARK   62  A    between atoms: _152  and  _153
REMARK   63  A    between atoms: _152  and  _155
REMARK   64  A    between atoms: _155  and  _156
REMARK   65  A    between atoms: _156  and  _157
REMARK   66  A    between atoms: _157  and  _158
REMARK   67  A    between atoms: _158  and  _159
REMARK   68  A    between atoms: _163  and  _165
REMARK   69  A    between atoms: _165  and  _166
REMARK   70  A    between atoms: _165  and  _168
REMARK   71  A    between atoms: _168  and  _169
REMARK   72  A    between atoms: _172  and  _174
REMARK   73  A    between atoms: _174  and  _175
REMARK   74  A    between atoms: _174  and  _177
REMARK   75  A    between atoms: _179  and  _181
REMARK   76  A    between atoms: _181  and  _182
REMARK   77  A    between atoms: _181  and  _184
REMARK   78  A    between atoms: _184  and  _185
REMARK   79  A    between atoms: _188  and  _190
REMARK   80  A    between atoms: _190  and  _191
REMARK   81  A    between atoms: _190  and  _193
REMARK   82  A    between atoms: _193  and  _194
REMARK   83  A    between atoms: _197  and  _199
REMARK   84  A    between atoms: _199  and  _200
REMARK   85  A    between atoms: _199  and  _202
REMARK   86  A    between atoms: _202  and  _203
REMARK   87  A    between atoms: _206  and  _208
REMARK   88  A    between atoms: _208  and  _209
REMARK   89  A    between atoms: _208  and  _211
REMARK   90  A    between atoms: _211  and  _212
REMARK   91  A    between atoms: _215  and  _217
REMARK   92  A    between atoms: _217  and  _218
REMARK   93  A    between atoms: _217  and  _220
REMARK   94  A    between atoms: _220  and  _221
REMARK   95  A    between atoms: _221  and  _222
REMARK   96  A    between atoms: _224  and  _226
REMARK   97  A    between atoms: _226  and  _227
REMARK   98  A    between atoms: _226  and  _229
REMARK   99  A    between atoms: _229  and  _230
REMARK  100  A    between atoms: _233  and  _235
REMARK  101  A    between atoms: _235  and  _236
REMARK  102  A    between atoms: _235  and  _238
REMARK  103  A    between atoms: _238  and  _239
REMARK  104  A    between atoms: _239  and  _240
REMARK  105  A    between atoms: _240  and  _241
REMARK  106  A    between atoms: _250  and  _252
REMARK  107  A    between atoms: _252  and  _253
REMARK  108  A    between atoms: _252  and  _255
REMARK  109  A    between atoms: _255  and  _256
REMARK  110  A    between atoms: _259  and  _261
REMARK  111  A    between atoms: _261  and  _262
REMARK  112  A    between atoms: _261  and  _264
REMARK  113  A    between atoms: _266  and  _268
REMARK  114  A    between atoms: _268  and  _269
REMARK  115  A    between atoms: _268  and  _271
REMARK  116  A    between atoms: _271  and  _272
REMARK  117  A    between atoms: _275  and  _277
REMARK  118  A    between atoms: _277  and  _278
REMARK  119  A    between atoms: _277  and  _280
REMARK  120  A    between atoms: _280  and  _281
REMARK  121  A    between atoms: _281  and  _282
REMARK  122  A    between atoms: _282  and  _283
REMARK  123  A    between atoms: _292  and  _294
REMARK  124  A    between atoms: _294  and  _295
REMARK  125  A    between atoms: _294  and  _297
REMARK  126  A    between atoms: _297  and  _298
REMARK  127  A    between atoms: _298  and  _299
REMARK  128  A    between atoms: _301  and  _303
REMARK  129  A    between atoms: _303  and  _304
REMARK  130  A    between atoms: _303  and  _306
REMARK  131  A    between atoms: _306  and  _307
REMARK  132  A    between atoms: _310  and  _312
REMARK  133  A    between atoms: _312  and  _313
REMARK  134  A    between atoms: _312  and  _315
REMARK  135  A    between atoms: _315  and  _316
REMARK  136  A    between atoms: _322  and  _324
REMARK  137  A    between atoms: _324  and  _325
REMARK  138  A    between atoms: _324  and  _327
REMARK  139  A    between atoms: _327  and  _328
REMARK  140  A    between atoms: _330  and  _332
REMARK  141  A    between atoms: _332  and  _333
REMARK  142  A    between atoms: _332  and  _335
REMARK  143  A    between atoms: _335  and  _336
REMARK  144  A    between atoms: _339  and  _341
REMARK  145  A    between atoms: _341  and  _342
REMARK  146  A    between atoms: _344  and  _346
REMARK  147  A    between atoms: _346  and  _347
REMARK  148  A    between atoms: _346  and  _349
REMARK  149  A    between atoms: _349  and  _350
REMARK  150  A    between atoms: _353  and  _355
REMARK  151  A    between atoms: _355  and  _356
REMARK  152  A    between atoms: _355  and  _358
REMARK  153  A    between atoms: _358  and  _359
REMARK  154  A    between atoms: _359  and  _360
REMARK  155  A    between atoms: _362  and  _364
REMARK  156  A    between atoms: _364  and  _365
REMARK  157  A    between atoms: _364  and  _367
REMARK  158  A    between atoms: _367  and  _368
REMARK  159  A    between atoms: _373  and  _375
REMARK  160  A    between atoms: _375  and  _376
REMARK  161  A    between atoms: _379  and  _381
REMARK  162  A    between atoms: _381  and  _382
REMARK  163  A    between atoms: _384  and  _386
REMARK  164  A    between atoms: _386  and  _387
REMARK  165  A    between atoms: _386  and  _389
REMARK  166  A    between atoms: _389  and  _390
REMARK  167  A    between atoms: _396  and  _398
REMARK  168  A    between atoms: _398  and  _399
REMARK  169  A    between atoms: _401  and  _403
REMARK  170  A    between atoms: _403  and  _404
REMARK  171  A    between atoms: _403  and  _406
REMARK  172  A    between atoms: _406  and  _407
REMARK  173  A    between atoms: _410  and  _412
REMARK  174  A    between atoms: _412  and  _413
REMARK  175  A    between atoms: _412  and  _415
REMARK  176  A    between atoms: _415  and  _416
REMARK  177  A    between atoms: _419  and  _421
REMARK  178  A    between atoms: _421  and  _422
REMARK  179  A    between atoms: _421  and  _424
REMARK  180  A    between atoms: _427  and  _429
REMARK  181  A    between atoms: _429  and  _430
REMARK  182  A    between atoms: _429  and  _432
REMARK  183  A    between atoms: _432  and  _433
REMARK  184  A    between atoms: _436  and  _438
REMARK  185  A    between atoms: _438  and  _439
REMARK  186  A    between atoms: _438  and  _441
REMARK  187  A    between atoms: _441  and  _442
REMARK  188  A    between atoms: _444  and  _446
REMARK  189  A    between atoms: _446  and  _447
REMARK  190  A    between atoms: _446  and  _449
REMARK  191  A    between atoms: _449  and  _450
REMARK  192  A    between atoms: _450  and  _451
REMARK  193  A    between atoms: _451  and  _452
REMARK  194  A    between atoms: _452  and  _453
REMARK  195  A    between atoms: _457  and  _459
REMARK  196  A    between atoms: _459  and  _460
REMARK  197  A    between atoms: _462  and  _464
REMARK  198  A    between atoms: _464  and  _465
REMARK  199  A    between atoms: _468  and  _470
REMARK  200  A    between atoms: _470  and  _471
REMARK  201  A    between atoms: _470  and  _473
REMARK  202  A    between atoms: _474  and  _475
REMARK  203  A    between atoms: _478  and  _480
REMARK  204  A    between atoms: _480  and  _481
REMARK  205  A    between atoms: _480  and  _483
REMARK  206  A    between atoms: _483  and  _484
REMARK  207  A    between atoms: _484  and  _485
REMARK  208  A    between atoms: _485  and  _486
REMARK  209  A    between atoms: _495  and  _497
REMARK  210  A    between atoms: _497  and  _498
REMARK  211  A    between atoms: _501  and  _503
REMARK  212  A    between atoms: _503  and  _504
REMARK  213  A    between atoms: _503  and  _506
REMARK  214  A    between atoms: _506  and  _507
REMARK  215  A    between atoms: _510  and  _512
REMARK  216  A    between atoms: _512  and  _513
REMARK  217  A    between atoms: _512  and  _515
REMARK  218  A    between atoms: _515  and  _516
REMARK  219  A    between atoms: _519  and  _521
REMARK  220  A    between atoms: _521  and  _522
REMARK  221  A    between atoms: _521  and  _524
REMARK  222  A    between atoms: _524  and  _525
REMARK  223  A    between atoms: _528  and  _530
REMARK  224  A    between atoms: _530  and  _531
REMARK  225  A    between atoms: _530  and  _533
REMARK  226  A    between atoms: _533  and  _534
REMARK  227  A    between atoms: _534  and  _535
REMARK  228  A    between atoms: _535  and  _536
REMARK  229  A    between atoms: _536  and  _537
REMARK  230  A    between atoms: _541  and  _543
REMARK  231  A    between atoms: _543  and  _544
REMARK  232  A    between atoms: _543  and  _546
REMARK  233  A    between atoms: _546  and  _547
REMARK  234  A    between atoms: _550  and  _552
REMARK  235  A    between atoms: _552  and  _553
REMARK  236  A    between atoms: _552  and  _555
REMARK  237  A    between atoms: _555  and  _556
REMARK  238  A    between atoms: _556  and  _557
REMARK  239  A    between atoms: _560  and  _561
REMARK  240  A    between atoms: _566  and  _568
REMARK  241  A    between atoms: _568  and  _569
REMARK  242  A    between atoms: _568  and  _571
REMARK  243  A    between atoms: _571  and  _572
REMARK  244  A    between atoms: _575  and  _577
REMARK  245  A    between atoms: _577  and  _578
REMARK  246  A    between atoms: _577  and  _580
REMARK  247  A    between atoms: _580  and  _581
REMARK  248  A    between atoms: _581  and  _582
REMARK  249  A    between atoms: _582  and  _583
REMARK  250  A    between atoms: _592  and  _594
REMARK  251  A    between atoms: _594  and  _595
REMARK  252  A    between atoms: _594  and  _597
REMARK  253  A    between atoms: _597  and  _598
REMARK  254  A    between atoms: _598  and  _599
REMARK  255  A    between atoms: _601  and  _603
REMARK  256  A    between atoms: _603  and  _604
REMARK  257  A    between atoms: _603  and  _606
REMARK  258  A    between atoms: _606  and  _607
REMARK                            x       y       z     vdW  Elec       q    Type
REMARK                         _______ _______ _______ _____ _____    ______ ____
ROOT
ATOM      1  O   HOH     1      33.774  23.704  88.948  0.00  0.00    +0.000 OA
ENDROOT
TORSDOF 0
REMARK  Name = ../refined-set-2016/1fcy/1fcy_pocket.pdb
REMARK  258 active torsions:
REMARK  status: ('A' for Active; 'I' for Inactive)
REMARK    1  A    between atoms: _1  and  _3
REMARK    2  A    between atoms: _3  and  _4
REMARK    3  A    between atoms: _3  and  _6
REMARK    4  A    between atoms: _6  and  _7
REMARK    5  A    between atoms: _10  and  _12
REMARK    6  A    between atoms: _12  and  _13
REMARK    7  A    between atoms: _12  and  _15
REMARK    8  A    between atoms: _15  and  _16
REMARK    9  A    between atoms: _23  and  _24
REMARK   10  A    between atoms: _29  and  _31
REMARK   11  A    between atoms: _31  and  _32
REMARK   12  A    between atoms: _31  and  _34
REMARK   13  A    between atoms: _34  and  _35
REMARK   14  A    between atoms: _38  and  _40
REMARK   15  A    between atoms: _40  and  _41
REMARK   16  A    between atoms: _40  and  _43
REMARK   17  A    between atoms: _43  and  _44
REMARK   18  A    between atoms: _54  and  _56
REMARK   19  A    between atoms: _56  and  _57
REMARK   20  A    between atoms: _56  and  _59
REMARK   21  A    between atoms: _59  and  _60
REMARK   22  A    between atoms: _60  and  _61
REMARK   23  A    between atoms: _61  and  _62
REMARK   24  A    between atoms: _62  and  _63
REMARK   25  A    between atoms: _67  and  _69
REMARK   26  A    between atoms: _69  and  _70
REMARK   27  A    between atoms: _69  and  _72
REMARK   28  A    between atoms: _72  and  _73
REMARK   29  A    between atoms: _79  and  _81
REMARK   30  A    between atoms: _81  and  _82
REMARK   31  A    between atoms: _81  and  _84
REMARK   32  A    between atoms: _84  and  _85
REMARK   33  A    between atoms: _87  and  _89
REMARK   34  A    between atoms: _89  and  _90
REMARK   35  A    between atoms: _89  and  _92
REMARK   36  A    between atoms: _92  and  _93
REMARK   37  A    between atoms: _93  and  _94
REMARK   38  A    between atoms: _97  and  _99
REMARK   39  A    between atoms: _99  and  _100
REMARK   40  A    between atoms: _99  and  _102
REMARK   41  A    between atoms: _102  and  _103
REMARK   42  A    between atoms: _106  and  _108
REMARK   43  A    between atoms: _108  and  _109
REMARK   44  A    between atoms: _112  and  _114
REMARK   45  A    between atoms: _114  and  _115
REMARK   46  A    between atoms: _114  and  _117
REMARK   47  A    between atoms: _117  and  _118
REMARK   48  A    between atoms: _121  and  _123
REMARK   49  A    between atoms: _123  and  _124
REMARK   50  A    between atoms: _123  and  _126
REMARK   51  A    between atoms: _127  and  _128
REMARK   52  A    between atoms: _128  and  _129
REMARK   53  A    between atoms: _129  and  _130
REMARK   54  A    between atoms: _134  and  _136
REMARK   55  A    between atoms: _136  and  _137
REMARK   56  A    between atoms: _136  and  _139
REMARK   57  A    between atoms: _141  and  _143
REMARK   58  A    between atoms: _143  and  _144
REMARK   59  A    between atoms: _143  and  _146
REMARK   60  A    between atoms: _146  and  _147
REMARK   61  A    between atoms: _150  and  _152
REMARK   62  A    between atoms: _152  and  _153
REMARK   63  A    between atoms: _152  and  _155
REMARK   64  A    between atoms: _155  and  _156
REMARK   65  A    between atoms: _156  and  _157
REMARK   66  A    between atoms: _157  and  _158
REMARK   67  A    between atoms: _158  and  _159
REMARK   68  A    between atoms: _163  and  _165
REMARK   69  A    between atoms: _165  and  _166
REMARK   70  A    between atoms: _165  and  _168
REMARK   71  A    between atoms: _168  and  _169
REMARK   72  A    between atoms: _172  and  _174
REMARK   73  A    between atoms: _174  and  _175
REMARK   74  A    between atoms: _174  and  _177
REMARK   75  A    between atoms: _179  and  _181
REMARK   76  A    between atoms: _181  and  _182
REMARK   77  A    between atoms: _181  and  _184
REMARK   78  A    between atoms: _184  and  _185
REMARK   79  A    between atoms: _188  and  _190
REMARK   80  A    between atoms: _190  and  _191
REMARK   81  A    between atoms: _190  and  _193
REMARK   82  A    between atoms: _193  and  _194
REMARK   83  A    between atoms: _197  and  _199
REMARK   84  A    between atoms: _199  and  _200
REMARK   85  A    between atoms: _199  and  _202
REMARK   86  A    between atoms: _202  and  _203
REMARK   87  A    between atoms: _206  and  _208
REMARK   88  A    between atoms: _208  and  _209
REMARK   89  A    between atoms: _208  and  _211
REMARK   90  A    between atoms: _211  and  _212
REMARK   91  A    between atoms: _215  and  _217
REMARK   92  A    between atoms: _217  and  _218
REMARK   93  A    between atoms: _217  and  _220
REMARK   94  A    between atoms: _220  and  _221
REMARK   95  A    between atoms: _221  and  _222
REMARK   96  A    between atoms: _224  and  _226
REMARK   97  A    between atoms: _226  and  _227
REMARK   98  A    between atoms: _226  and  _229
REMARK   99  A    between atoms: _229  and  _230
REMARK  100  A    between atoms: _233  and  _235
REMARK  101  A    between atoms: _235  and  _236
REMARK  102  A    between atoms: _235  and  _238
REMARK  103  A    between atoms: _238  and  _239
REMARK  104  A    between atoms: _239  and  _240
REMARK  105  A    between atoms: _240  and  _241
REMARK  106  A    between atoms: _250  and  _252
REMARK  107  A    between atoms: _252  and  _253
REMARK  108  A    between atoms: _252  and  _255
REMARK  109  A    between atoms: _255  and  _256
REMARK  110  A    between atoms: _259  and  _261
REMARK  111  A    between atoms: _261  and  _262
REMARK  112  A    between atoms: _261  and  _264
REMARK  113  A    between atoms: _266  and  _268
REMARK  114  A    between atoms: _268  and  _269
REMARK  115  A    between atoms: _268  and  _271
REMARK  116  A    between atoms: _271  and  _272
REMARK  117  A    between atoms: _275  and  _277
REMARK  118  A    between atoms: _277  and  _278
REMARK  119  A    between atoms: _277  and  _280
REMARK  120  A    between atoms: _280  and  _281
REMARK  121  A    between atoms: _281  and  _282
REMARK  122  A    between atoms: _282  and  _283
REMARK  123  A    between atoms: _292  and  _294
REMARK  124  A    between atoms: _294  and  _295
REMARK  125  A    between atoms: _294  and  _297
REMARK  126  A    between atoms: _297  and  _298
REMARK  127  A    between atoms: _298  and  _299
REMARK  128  A    between atoms: _301  and  _303
REMARK  129  A    between atoms: _303  and  _304
REMARK  130  A    between atoms: _303  and  _306
REMARK  131  A    between atoms: _306  and  _307
REMARK  132  A    between atoms: _310  and  _312
REMARK  133  A    between atoms: _312  and  _313
REMARK  134  A    between atoms: _312  and  _315
REMARK  135  A    between atoms: _315  and  _316
REMARK  136  A    between atoms: _322  and  _324
REMARK  137  A    between atoms: _324  and  _325
REMARK  138  A    between atoms: _324  and  _327
REMARK  139  A    between atoms: _327  and  _328
REMARK  140  A    between atoms: _330  and  _332
REMARK  141  A    between atoms: _332  and  _333
REMARK  142  A    between atoms: _332  and  _335
REMARK  143  A    between atoms: _335  and  _336
REMARK  144  A    between atoms: _339  and  _341
REMARK  145  A    between atoms: _341  and  _342
REMARK  146  A    between atoms: _344  and  _346
REMARK  147  A    between atoms: _346  and  _347
REMARK  148  A    between atoms: _346  and  _349
REMARK  149  A    between atoms: _349  and  _350
REMARK  150  A    between atoms: _353  and  _355
REMARK  151  A    between atoms: _355  and  _356
REMARK  152  A    between atoms: _355  and  _358
REMARK  153  A    between atoms: _358  and  _359
REMARK  154  A    between atoms: _359  and  _360
REMARK  155  A    between atoms: _362  and  _364
REMARK  156  A    between atoms: _364  and  _365
REMARK  157  A    between atoms: _364  and  _367
REMARK  158  A    between atoms: _367  and  _368
REMARK  159  A    between atoms: _373  and  _375
REMARK  160  A    between atoms: _375  and  _376
REMARK  161  A    between atoms: _379  and  _381
REMARK  162  A    between atoms: _381  and  _382
REMARK  163  A    between atoms: _384  and  _386
REMARK  164  A    between atoms: _386  and  _387
REMARK  165  A    between atoms: _386  and  _389
REMARK  166  A    between atoms: _389  and  _390
REMARK  167  A    between atoms: _396  and  _398
REMARK  168  A    between atoms: _398  and  _399
REMARK  169  A    between atoms: _401  and  _403
REMARK  170  A    between atoms: _403  and  _404
REMARK  171  A    between atoms: _403  and  _406
REMARK  172  A    between atoms: _406  and  _407
REMARK  173  A    between atoms: _410  and  _412
REMARK  174  A    between atoms: _412  and  _413
REMARK  175  A    between atoms: _412  and  _415
REMARK  176  A    between atoms: _415  and  _416
REMARK  177  A    between atoms: _419  and  _421
REMARK  178  A    between atoms: _421  and  _422
REMARK  179  A    between atoms: _421  and  _424
REMARK  180  A    between atoms: _427  and  _429
REMARK  181  A    between atoms: _429  and  _430
REMARK  182  A    between atoms: _429  and  _432
REMARK  183  A    between atoms: _432  and  _433
REMARK  184  A    between atoms: _436  and  _438
REMARK  185  A    between atoms: _438  and  _439
REMARK  186  A    between atoms: _438  and  _441
REMARK  187  A    between atoms: _441  and  _442
REMARK  188  A    between atoms: _444  and  _446
REMARK  189  A    between atoms: _446  and  _447
REMARK  190  A    between atoms: _446  and  _449
REMARK  191  A    between atoms: _449  and  _450
REMARK  192  A    between atoms: _450  and  _451
REMARK  193  A    between atoms: _451  and  _452
REMARK  194  A    between atoms: _452  and  _453
REMARK  195  A    between atoms: _457  and  _459
REMARK  196  A    between atoms: _459  and  _460
REMARK  197  A    between atoms: _462  and  _464
REMARK  198  A    between atoms: _464  and  _465
REMARK  199  A    between atoms: _468  and  _470
REMARK  200  A    between atoms: _470  and  _471
REMARK  201  A    between atoms: _470  and  _473
REMARK  202  A    between atoms: _474  and  _475
REMARK  203  A    between atoms: _478  and  _480
REMARK  204  A    between atoms: _480  and  _481
REMARK  205  A    between atoms: _480  and  _483
REMARK  206  A    between atoms: _483  and  _484
REMARK  207  A    between atoms: _484  and  _485
REMARK  208  A    between atoms: _485  and  _486
REMARK  209  A    between atoms: _495  and  _497
REMARK  210  A    between atoms: _497  and  _498
REMARK  211  A    between atoms: _501  and  _503
REMARK  212  A    between atoms: _503  and  _504
REMARK  213  A    between atoms: _503  and  _506
REMARK  214  A    between atoms: _506  and  _507
REMARK  215  A    between atoms: _510  and  _512
REMARK  216  A    between atoms: _512  and  _513
REMARK  217  A    between atoms: _512  and  _515
REMARK  218  A    between atoms: _515  and  _516
REMARK  219  A    between atoms: _519  and  _521
REMARK  220  A    between atoms: _521  and  _522
REMARK  221  A    between atoms: _521  and  _524
REMARK  222  A    between atoms: _524  and  _525
REMARK  223  A    between atoms: _528  and  _530
REMARK  224  A    between atoms: _530  and  _531
REMARK  225  A    between atoms: _530  and  _533
REMARK  226  A    between atoms: _533  and  _534
REMARK  227  A    between atoms: _534  and  _535
REMARK  228  A    between atoms: _535  and  _536
REMARK  229  A    between atoms: _536  and  _537
REMARK  230  A    between atoms: _541  and  _543
REMARK  231  A    between atoms: _543  and  _544
REMARK  232  A    between atoms: _543  and  _546
REMARK  233  A    between atoms: _546  and  _547
REMARK  234  A    between atoms: _550  and  _552
REMARK  235  A    between atoms: _552  and  _553
REMARK  236  A    between atoms: _552  and  _555
REMARK  237  A    between atoms: _555  and  _556
REMARK  238  A    between atoms: _556  and  _557
REMARK  239  A    between atoms: _560  and  _561
REMARK  240  A    between atoms: _566  and  _568
REMARK  241  A    between atoms: _568  and  _569
REMARK  242  A    between atoms: _568  and  _571
REMARK  243  A    between atoms: _571  and  _572
REMARK  244  A    between atoms: _575  and  _577
REMARK  245  A    between atoms: _577  and  _578
REMARK  246  A    between atoms: _577  and  _580
REMARK  247  A    between atoms: _580  and  _581
REMARK  248  A    between atoms: _581  and  _582
REMARK  249  A    between atoms: _582  and  _583
REMARK  250  A    between atoms: _592  and  _594
REMARK  251  A    between atoms: _594  and  _595
REMARK  252  A    between atoms: _594  and  _597
REMARK  253  A    between atoms: _597  and  _598
REMARK  254  A    between atoms: _598  and  _599
REMARK  255  A    between atoms: _601  and  _603
REMARK  256  A    between atoms: _603  and  _604
REMARK  257  A    between atoms: _603  and  _606
REMARK  258  A    between atoms: _606  and  _607
REMARK                            x       y       z     vdW  Elec       q    Type
REMARK                         _______ _______ _______ _____ _____    ______ ____
ROOT
ATOM      1  O   HOH     1      34.363  23.750  91.749  0.00  0.00    +0.000 OA
ENDROOT
TORSDOF 0
REMARK  Name = ../refined-set-2016/1fcy/1fcy_pocket.pdb
REMARK  258 active torsions:
REMARK  status: ('A' for Active; 'I' for Inactive)
REMARK    1  A    between atoms: _1  and  _3
REMARK    2  A    between atoms: _3  and  _4
REMARK    3  A    between atoms: _3  and  _6
REMARK    4  A    between atoms: _6  and  _7
REMARK    5  A    between atoms: _10  and  _12
REMARK    6  A    between atoms: _12  and  _13
REMARK    7  A    between atoms: _12  and  _15
REMARK    8  A    between atoms: _15  and  _16
REMARK    9  A    between atoms: _23  and  _24
REMARK   10  A    between atoms: _29  and  _31
REMARK   11  A    between atoms: _31  and  _32
REMARK   12  A    between atoms: _31  and  _34
REMARK   13  A    between atoms: _34  and  _35
REMARK   14  A    between atoms: _38  and  _40
REMARK   15  A    between atoms: _40  and  _41
REMARK   16  A    between atoms: _40  and  _43
REMARK   17  A    between atoms: _43  and  _44
REMARK   18  A    between atoms: _54  and  _56
REMARK   19  A    between atoms: _56  and  _57
REMARK   20  A    between atoms: _56  and  _59
REMARK   21  A    between atoms: _59  and  _60
REMARK   22  A    between atoms: _60  and  _61
REMARK   23  A    between atoms: _61  and  _62
REMARK   24  A    between atoms: _62  and  _63
REMARK   25  A    between atoms: _67  and  _69
REMARK   26  A    between atoms: _69  and  _70
REMARK   27  A    between atoms: _69  and  _72
REMARK   28  A    between atoms: _72  and  _73
REMARK   29  A    between atoms: _79  and  _81
REMARK   30  A    between atoms: _81  and  _82
REMARK   31  A    between atoms: _81  and  _84
REMARK   32  A    between atoms: _84  and  _85
REMARK   33  A    between atoms: _87  and  _89
REMARK   34  A    between atoms: _89  and  _90
REMARK   35  A    between atoms: _89  and  _92
REMARK   36  A    between atoms: _92  and  _93
REMARK   37  A    between atoms: _93  and  _94
REMARK   38  A    between atoms: _97  and  _99
REMARK   39  A    between atoms: _99  and  _100
REMARK   40  A    between atoms: _99  and  _102
REMARK   41  A    between atoms: _102  and  _103
REMARK   42  A    between atoms: _106  and  _108
REMARK   43  A    between atoms: _108  and  _109
REMARK   44  A    between atoms: _112  and  _114
REMARK   45  A    between atoms: _114  and  _115
REMARK   46  A    between atoms: _114  and  _117
REMARK   47  A    between atoms: _117  and  _118
REMARK   48  A    between atoms: _121  and  _123
REMARK   49  A    between atoms: _123  and  _124
REMARK   50  A    between atoms: _123  and  _126
REMARK   51  A    between atoms: _127  and  _128
REMARK   52  A    between atoms: _128  and  _129
REMARK   53  A    between atoms: _129  and  _130
REMARK   54  A    between atoms: _134  and  _136
REMARK   55  A    between atoms: _136  and  _137
REMARK   56  A    between atoms: _136  and  _139
REMARK   57  A    between atoms: _141  and  _143
REMARK   58  A    between atoms: _143  and  _144
REMARK   59  A    between atoms: _143  and  _146
REMARK   60  A    between atoms: _146  and  _147
REMARK   61  A    between atoms: _150  and  _152
REMARK   62  A    between atoms: _152  and  _153
REMARK   63  A    between atoms: _152  and  _155
REMARK   64  A    between atoms: _155  and  _156
REMARK   65  A    between atoms: _156  and  _157
REMARK   66  A    between atoms: _157  and  _158
REMARK   67  A    between atoms: _158  and  _159
REMARK   68  A    between atoms: _163  and  _165
REMARK   69  A    between atoms: _165  and  _166
REMARK   70  A    between atoms: _165  and  _168
REMARK   71  A    between atoms: _168  and  _169
REMARK   72  A    between atoms: _172  and  _174
REMARK   73  A    between atoms: _174  and  _175
REMARK   74  A    between atoms: _174  and  _177
REMARK   75  A    between atoms: _179  and  _181
REMARK   76  A    between atoms: _181  and  _182
REMARK   77  A    between atoms: _181  and  _184
REMARK   78  A    between atoms: _184  and  _185
REMARK   79  A    between atoms: _188  and  _190
REMARK   80  A    between atoms: _190  and  _191
REMARK   81  A    between atoms: _190  and  _193
REMARK   82  A    between atoms: _193  and  _194
REMARK   83  A    between atoms: _197  and  _199
REMARK   84  A    between atoms: _199  and  _200
REMARK   85  A    between atoms: _199  and  _202
REMARK   86  A    between atoms: _202  and  _203
REMARK   87  A    between atoms: _206  and  _208
REMARK   88  A    between atoms: _208  and  _209
REMARK   89  A    between atoms: _208  and  _211
REMARK   90  A    between atoms: _211  and  _212
REMARK   91  A    between atoms: _215  and  _217
REMARK   92  A    between atoms: _217  and  _218
REMARK   93  A    between atoms: _217  and  _220
REMARK   94  A    between atoms: _220  and  _221
REMARK   95  A    between atoms: _221  and  _222
REMARK   96  A    between atoms: _224  and  _226
REMARK   97  A    between atoms: _226  and  _227
REMARK   98  A    between atoms: _226  and  _229
REMARK   99  A    between atoms: _229  and  _230
REMARK  100  A    between atoms: _233  and  _235
REMARK  101  A    between atoms: _235  and  _236
REMARK  102  A    between atoms: _235  and  _238
REMARK  103  A    between atoms: _238  and  _239
REMARK  104  A    between atoms: _239  and  _240
REMARK  105  A    between atoms: _240  and  _241
REMARK  106  A    between atoms: _250  and  _252
REMARK  107  A    between atoms: _252  and  _253
REMARK  108  A    between atoms: _252  and  _255
REMARK  109  A    between atoms: _255  and  _256
REMARK  110  A    between atoms: _259  and  _261
REMARK  111  A    between atoms: _261  and  _262
REMARK  112  A    between atoms: _261  and  _264
REMARK  113  A    between atoms: _266  and  _268
REMARK  114  A    between atoms: _268  and  _269
REMARK  115  A    between atoms: _268  and  _271
REMARK  116  A    between atoms: _271  and  _272
REMARK  117  A    between atoms: _275  and  _277
REMARK  118  A    between atoms: _277  and  _278
REMARK  119  A    between atoms: _277  and  _280
REMARK  120  A    between atoms: _280  and  _281
REMARK  121  A    between atoms: _281  and  _282
REMARK  122  A    between atoms: _282  and  _283
REMARK  123  A    between atoms: _292  and  _294
REMARK  124  A    between atoms: _294  and  _295
REMARK  125  A    between atoms: _294  and  _297
REMARK  126  A    between atoms: _297  and  _298
REMARK  127  A    between atoms: _298  and  _299
REMARK  128  A    between atoms: _301  and  _303
REMARK  129  A    between atoms: _303  and  _304
REMARK  130  A    between atoms: _303  and  _306
REMARK  131  A    between atoms: _306  and  _307
REMARK  132  A    between atoms: _310  and  _312
REMARK  133  A    between atoms: _312  and  _313
REMARK  134  A    between atoms: _312  and  _315
REMARK  135  A    between atoms: _315  and  _316
REMARK  136  A    between atoms: _322  and  _324
REMARK  137  A    between atoms: _324  and  _325
REMARK  138  A    between atoms: _324  and  _327
REMARK  139  A    between atoms: _327  and  _328
REMARK  140  A    between atoms: _330  and  _332
REMARK  141  A    between atoms: _332  and  _333
REMARK  142  A    between atoms: _332  and  _335
REMARK  143  A    between atoms: _335  and  _336
REMARK  144  A    between atoms: _339  and  _341
REMARK  145  A    between atoms: _341  and  _342
REMARK  146  A    between atoms: _344  and  _346
REMARK  147  A    between atoms: _346  and  _347
REMARK  148  A    between atoms: _346  and  _349
REMARK  149  A    between atoms: _349  and  _350
REMARK  150  A    between atoms: _353  and  _355
REMARK  151  A    between atoms: _355  and  _356
REMARK  152  A    between atoms: _355  and  _358
REMARK  153  A    between atoms: _358  and  _359
REMARK  154  A    between atoms: _359  and  _360
REMARK  155  A    between atoms: _362  and  _364
REMARK  156  A    between atoms: _364  and  _365
REMARK  157  A    between atoms: _364  and  _367
REMARK  158  A    between atoms: _367  and  _368
REMARK  159  A    between atoms: _373  and  _375
REMARK  160  A    between atoms: _375  and  _376
REMARK  161  A    between atoms: _379  and  _381
REMARK  162  A    between atoms: _381  and  _382
REMARK  163  A    between atoms: _384  and  _386
REMARK  164  A    between atoms: _386  and  _387
REMARK  165  A    between atoms: _386  and  _389
REMARK  166  A    between atoms: _389  and  _390
REMARK  167  A    between atoms: _396  and  _398
REMARK  168  A    between atoms: _398  and  _399
REMARK  169  A    between atoms: _401  and  _403
REMARK  170  A    between atoms: _403  and  _404
REMARK  171  A    between atoms: _403  and  _406
REMARK  172  A    between atoms: _406  and  _407
REMARK  173  A    between atoms: _410  and  _412
REMARK  174  A    between atoms: _412  and  _413
REMARK  175  A    between atoms: _412  and  _415
REMARK  176  A    between atoms: _415  and  _416
REMARK  177  A    between atoms: _419  and  _421
REMARK  178  A    between atoms: _421  and  _422
REMARK  179  A    between atoms: _421  and  _424
REMARK  180  A    between atoms: _427  and  _429
REMARK  181  A    between atoms: _429  and  _430
REMARK  182  A    between atoms: _429  and  _432
REMARK  183  A    between atoms: _432  and  _433
REMARK  184  A    between atoms: _436  and  _438
REMARK  185  A    between atoms: _438  and  _439
REMARK  186  A    between atoms: _438  and  _441
REMARK  187  A    between atoms: _441  and  _442
REMARK  188  A    between atoms: _444  and  _446
REMARK  189  A    between atoms: _446  and  _447
REMARK  190  A    between atoms: _446  and  _449
REMARK  191  A    between atoms: _449  and  _450
REMARK  192  A    between atoms: _450  and  _451
REMARK  193  A    between atoms: _451  and  _452
REMARK  194  A    between atoms: _452  and  _453
REMARK  195  A    between atoms: _457  and  _459
REMARK  196  A    between atoms: _459  and  _460
REMARK  197  A    between atoms: _462  and  _464
REMARK  198  A    between atoms: _464  and  _465
REMARK  199  A    between atoms: _468  and  _470
REMARK  200  A    between atoms: _470  and  _471
REMARK  201  A    between atoms: _470  and  _473
REMARK  202  A    between atoms: _474  and  _475
REMARK  203  A    between atoms: _478  and  _480
REMARK  204  A    between atoms: _480  and  _481
REMARK  205  A    between atoms: _480  and  _483
REMARK  206  A    between atoms: _483  and  _484
REMARK  207  A    between atoms: _484  and  _485
REMARK  208  A    between atoms: _485  and  _486
REMARK  209  A    between atoms: _495  and  _497
REMARK  210  A    between atoms: _497  and  _498
REMARK  211  A    between atoms: _501  and  _503
REMARK  212  A    between atoms: _503  and  _504
REMARK  213  A    between atoms: _503  and  _506
REMARK  214  A    between atoms: _506  and  _507
REMARK  215  A    between atoms: _510  and  _512
REMARK  216  A    between atoms: _512  and  _513
REMARK  217  A    between atoms: _512  and  _515
REMARK  218  A    between atoms: _515  and  _516
REMARK  219  A    between atoms: _519  and  _521
REMARK  220  A    between atoms: _521  and  _522
REMARK  221  A    between atoms: _521  and  _524
REMARK  222  A    between atoms: _524  and  _525
REMARK  223  A    between atoms: _528  and  _530
REMARK  224  A    between atoms: _530  and  _531
REMARK  225  A    between atoms: _530  and  _533
REMARK  226  A    between atoms: _533  and  _534
REMARK  227  A    between atoms: _534  and  _535
REMARK  228  A    between atoms: _535  and  _536
REMARK  229  A    between atoms: _536  and  _537
REMARK  230  A    between atoms: _541  and  _543
REMARK  231  A    between atoms: _543  and  _544
REMARK  232  A    between atoms: _543  and  _546
REMARK  233  A    between atoms: _546  and  _547
REMARK  234  A    between atoms: _550  and  _552
REMARK  235  A    between atoms: _552  and  _553
REMARK  236  A    between atoms: _552  and  _555
REMARK  237  A    between atoms: _555  and  _556
REMARK  238  A    between atoms: _556  and  _557
REMARK  239  A    between atoms: _560  and  _561
REMARK  240  A    between atoms: _566  and  _568
REMARK  241  A    between atoms: _568  and  _569
REMARK  242  A    between atoms: _568  and  _571
REMARK  243  A    between atoms: _571  and  _572
REMARK  244  A    between atoms: _575  and  _577
REMARK  245  A    between atoms: _577  and  _578
REMARK  246  A    between atoms: _577  and  _580
REMARK  247  A    between atoms: _580  and  _581
REMARK  248  A    between atoms: _581  and  _582
REMARK  249  A    between atoms: _582  and  _583
REMARK  250  A    between atoms: _592  and  _594
REMARK  251  A    between atoms: _594  and  _595
REMARK  252  A    between atoms: _594  and  _597
REMARK  253  A    between atoms: _597  and  _598
REMARK  254  A    between atoms: _598  and  _599
REMARK  255  A    between atoms: _601  and  _603
REMARK  256  A    between atoms: _603  and  _604
REMARK  257  A    between atoms: _603  and  _606
REMARK  258  A    between atoms: _606  and  _607
REMARK                            x       y       z     vdW  Elec       q    Type
REMARK                         _______ _______ _______ _____ _____    ______ ____
ROOT
ATOM      1  O   HOH     1      33.297  25.962  88.007  0.00  0.00    +0.000 OA
ENDROOT
TORSDOF 0
REMARK  Name = ../refined-set-2016/1fcy/1fcy_pocket.pdb
REMARK  258 active torsions:
REMARK  status: ('A' for Active; 'I' for Inactive)
REMARK    1  A    between atoms: _1  and  _3
REMARK    2  A    between atoms: _3  and  _4
REMARK    3  A    between atoms: _3  and  _6
REMARK    4  A    between atoms: _6  and  _7
REMARK    5  A    between atoms: _10  and  _12
REMARK    6  A    between atoms: _12  and  _13
REMARK    7  A    between atoms: _12  and  _15
REMARK    8  A    between atoms: _15  and  _16
REMARK    9  A    between atoms: _23  and  _24
REMARK   10  A    between atoms: _29  and  _31
REMARK   11  A    between atoms: _31  and  _32
REMARK   12  A    between atoms: _31  and  _34
REMARK   13  A    between atoms: _34  and  _35
REMARK   14  A    between atoms: _38  and  _40
REMARK   15  A    between atoms: _40  and  _41
REMARK   16  A    between atoms: _40  and  _43
REMARK   17  A    between atoms: _43  and  _44
REMARK   18  A    between atoms: _54  and  _56
REMARK   19  A    between atoms: _56  and  _57
REMARK   20  A    between atoms: _56  and  _59
REMARK   21  A    between atoms: _59  and  _60
REMARK   22  A    between atoms: _60  and  _61
REMARK   23  A    between atoms: _61  and  _62
REMARK   24  A    between atoms: _62  and  _63
REMARK   25  A    between atoms: _67  and  _69
REMARK   26  A    between atoms: _69  and  _70
REMARK   27  A    between atoms: _69  and  _72
REMARK   28  A    between atoms: _72  and  _73
REMARK   29  A    between atoms: _79  and  _81
REMARK   30  A    between atoms: _81  and  _82
REMARK   31  A    between atoms: _81  and  _84
REMARK   32  A    between atoms: _84  and  _85
REMARK   33  A    between atoms: _87  and  _89
REMARK   34  A    between atoms: _89  and  _90
REMARK   35  A    between atoms: _89  and  _92
REMARK   36  A    between atoms: _92  and  _93
REMARK   37  A    between atoms: _93  and  _94
REMARK   38  A    between atoms: _97  and  _99
REMARK   39  A    between atoms: _99  and  _100
REMARK   40  A    between atoms: _99  and  _102
REMARK   41  A    between atoms: _102  and  _103
REMARK   42  A    between atoms: _106  and  _108
REMARK   43  A    between atoms: _108  and  _109
REMARK   44  A    between atoms: _112  and  _114
REMARK   45  A    between atoms: _114  and  _115
REMARK   46  A    between atoms: _114  and  _117
REMARK   47  A    between atoms: _117  and  _118
REMARK   48  A    between atoms: _121  and  _123
REMARK   49  A    between atoms: _123  and  _124
REMARK   50  A    between atoms: _123  and  _126
REMARK   51  A    between atoms: _127  and  _128
REMARK   52  A    between atoms: _128  and  _129
REMARK   53  A    between atoms: _129  and  _130
REMARK   54  A    between atoms: _134  and  _136
REMARK   55  A    between atoms: _136  and  _137
REMARK   56  A    between atoms: _136  and  _139
REMARK   57  A    between atoms: _141  and  _143
REMARK   58  A    between atoms: _143  and  _144
REMARK   59  A    between atoms: _143  and  _146
REMARK   60  A    between atoms: _146  and  _147
REMARK   61  A    between atoms: _150  and  _152
REMARK   62  A    between atoms: _152  and  _153
REMARK   63  A    between atoms: _152  and  _155
REMARK   64  A    between atoms: _155  and  _156
REMARK   65  A    between atoms: _156  and  _157
REMARK   66  A    between atoms: _157  and  _158
REMARK   67  A    between atoms: _158  and  _159
REMARK   68  A    between atoms: _163  and  _165
REMARK   69  A    between atoms: _165  and  _166
REMARK   70  A    between atoms: _165  and  _168
REMARK   71  A    between atoms: _168  and  _169
REMARK   72  A    between atoms: _172  and  _174
REMARK   73  A    between atoms: _174  and  _175
REMARK   74  A    between atoms: _174  and  _177
REMARK   75  A    between atoms: _179  and  _181
REMARK   76  A    between atoms: _181  and  _182
REMARK   77  A    between atoms: _181  and  _184
REMARK   78  A    between atoms: _184  and  _185
REMARK   79  A    between atoms: _188  and  _190
REMARK   80  A    between atoms: _190  and  _191
REMARK   81  A    between atoms: _190  and  _193
REMARK   82  A    between atoms: _193  and  _194
REMARK   83  A    between atoms: _197  and  _199
REMARK   84  A    between atoms: _199  and  _200
REMARK   85  A    between atoms: _199  and  _202
REMARK   86  A    between atoms: _202  and  _203
REMARK   87  A    between atoms: _206  and  _208
REMARK   88  A    between atoms: _208  and  _209
REMARK   89  A    between atoms: _208  and  _211
REMARK   90  A    between atoms: _211  and  _212
REMARK   91  A    between atoms: _215  and  _217
REMARK   92  A    between atoms: _217  and  _218
REMARK   93  A    between atoms: _217  and  _220
REMARK   94  A    between atoms: _220  and  _221
REMARK   95  A    between atoms: _221  and  _222
REMARK   96  A    between atoms: _224  and  _226
REMARK   97  A    between atoms: _226  and  _227
REMARK   98  A    between atoms: _226  and  _229
REMARK   99  A    between atoms: _229  and  _230
REMARK  100  A    between atoms: _233  and  _235
REMARK  101  A    between atoms: _235  and  _236
REMARK  102  A    between atoms: _235  and  _238
REMARK  103  A    between atoms: _238  and  _239
REMARK  104  A    between atoms: _239  and  _240
REMARK  105  A    between atoms: _240  and  _241
REMARK  106  A    between atoms: _250  and  _252
REMARK  107  A    between atoms: _252  and  _253
REMARK  108  A    between atoms: _252  and  _255
REMARK  109  A    between atoms: _255  and  _256
REMARK  110  A    between atoms: _259  and  _261
REMARK  111  A    between atoms: _261  and  _262
REMARK  112  A    between atoms: _261  and  _264
REMARK  113  A    between atoms: _266  and  _268
REMARK  114  A    between atoms: _268  and  _269
REMARK  115  A    between atoms: _268  and  _271
REMARK  116  A    between atoms: _271  and  _272
REMARK  117  A    between atoms: _275  and  _277
REMARK  118  A    between atoms: _277  and  _278
REMARK  119  A    between atoms: _277  and  _280
REMARK  120  A    between atoms: _280  and  _281
REMARK  121  A    between atoms: _281  and  _282
REMARK  122  A    between atoms: _282  and  _283
REMARK  123  A    between atoms: _292  and  _294
REMARK  124  A    between atoms: _294  and  _295
REMARK  125  A    between atoms: _294  and  _297
REMARK  126  A    between atoms: _297  and  _298
REMARK  127  A    between atoms: _298  and  _299
REMARK  128  A    between atoms: _301  and  _303
REMARK  129  A    between atoms: _303  and  _304
REMARK  130  A    between atoms: _303  and  _306
REMARK  131  A    between atoms: _306  and  _307
REMARK  132  A    between atoms: _310  and  _312
REMARK  133  A    between atoms: _312  and  _313
REMARK  134  A    between atoms: _312  and  _315
REMARK  135  A    between atoms: _315  and  _316
REMARK  136  A    between atoms: _322  and  _324
REMARK  137  A    between atoms: _324  and  _325
REMARK  138  A    between atoms: _324  and  _327
REMARK  139  A    between atoms: _327  and  _328
REMARK  140  A    between atoms: _330  and  _332
REMARK  141  A    between atoms: _332  and  _333
REMARK  142  A    between atoms: _332  and  _335
REMARK  143  A    between atoms: _335  and  _336
REMARK  144  A    between atoms: _339  and  _341
REMARK  145  A    between atoms: _341  and  _342
REMARK  146  A    between atoms: _344  and  _346
REMARK  147  A    between atoms: _346  and  _347
REMARK  148  A    between atoms: _346  and  _349
REMARK  149  A    between atoms: _349  and  _350
REMARK  150  A    between atoms: _353  and  _355
REMARK  151  A    between atoms: _355  and  _356
REMARK  152  A    between atoms: _355  and  _358
REMARK  153  A    between atoms: _358  and  _359
REMARK  154  A    between atoms: _359  and  _360
REMARK  155  A    between atoms: _362  and  _364
REMARK  156  A    between atoms: _364  and  _365
REMARK  157  A    between atoms: _364  and  _367
REMARK  158  A    between atoms: _367  and  _368
REMARK  159  A    between atoms: _373  and  _375
REMARK  160  A    between atoms: _375  and  _376
REMARK  161  A    between atoms: _379  and  _381
REMARK  162  A    between atoms: _381  and  _382
REMARK  163  A    between atoms: _384  and  _386
REMARK  164  A    between atoms: _386  and  _387
REMARK  165  A    between atoms: _386  and  _389
REMARK  166  A    between atoms: _389  and  _390
REMARK  167  A    between atoms: _396  and  _398
REMARK  168  A    between atoms: _398  and  _399
REMARK  169  A    between atoms: _401  and  _403
REMARK  170  A    between atoms: _403  and  _404
REMARK  171  A    between atoms: _403  and  _406
REMARK  172  A    between atoms: _406  and  _407
REMARK  173  A    between atoms: _410  and  _412
REMARK  174  A    between atoms: _412  and  _413
REMARK  175  A    between atoms: _412  and  _415
REMARK  176  A    between atoms: _415  and  _416
REMARK  177  A    between atoms: _419  and  _421
REMARK  178  A    between atoms: _421  and  _422
REMARK  179  A    between atoms: _421  and  _424
REMARK  180  A    between atoms: _427  and  _429
REMARK  181  A    between atoms: _429  and  _430
REMARK  182  A    between atoms: _429  and  _432
REMARK  183  A    between atoms: _432  and  _433
REMARK  184  A    between atoms: _436  and  _438
REMARK  185  A    between atoms: _438  and  _439
REMARK  186  A    between atoms: _438  and  _441
REMARK  187  A    between atoms: _441  and  _442
REMARK  188  A    between atoms: _444  and  _446
REMARK  189  A    between atoms: _446  and  _447
REMARK  190  A    between atoms: _446  and  _449
REMARK  191  A    between atoms: _449  and  _450
REMARK  192  A    between atoms: _450  and  _451
REMARK  193  A    between atoms: _451  and  _452
REMARK  194  A    between atoms: _452  and  _453
REMARK  195  A    between atoms: _457  and  _459
REMARK  196  A    between atoms: _459  and  _460
REMARK  197  A    between atoms: _462  and  _464
REMARK  198  A    between atoms: _464  and  _465
REMARK  199  A    between atoms: _468  and  _470
REMARK  200  A    between atoms: _470  and  _471
REMARK  201  A    between atoms: _470  and  _473
REMARK  202  A    between atoms: _474  and  _475
REMARK  203  A    between atoms: _478  and  _480
REMARK  204  A    between atoms: _480  and  _481
REMARK  205  A    between atoms: _480  and  _483
REMARK  206  A    between atoms: _483  and  _484
REMARK  207  A    between atoms: _484  and  _485
REMARK  208  A    between atoms: _485  and  _486
REMARK  209  A    between atoms: _495  and  _497
REMARK  210  A    between atoms: _497  and  _498
REMARK  211  A    between atoms: _501  and  _503
REMARK  212  A    between atoms: _503  and  _504
REMARK  213  A    between atoms: _503  and  _506
REMARK  214  A    between atoms: _506  and  _507
REMARK  215  A    between atoms: _510  and  _512
REMARK  216  A    between atoms: _512  and  _513
REMARK  217  A    between atoms: _512  and  _515
REMARK  218  A    between atoms: _515  and  _516
REMARK  219  A    between atoms: _519  and  _521
REMARK  220  A    between atoms: _521  and  _522
REMARK  221  A    between atoms: _521  and  _524
REMARK  222  A    between atoms: _524  and  _525
REMARK  223  A    between atoms: _528  and  _530
REMARK  224  A    between atoms: _530  and  _531
REMARK  225  A    between atoms: _530  and  _533
REMARK  226  A    between atoms: _533  and  _534
REMARK  227  A    between atoms: _534  and  _535
REMARK  228  A    between atoms: _535  and  _536
REMARK  229  A    between atoms: _536  and  _537
REMARK  230  A    between atoms: _541  and  _543
REMARK  231  A    between atoms: _543  and  _544
REMARK  232  A    between atoms: _543  and  _546
REMARK  233  A    between atoms: _546  and  _547
REMARK  234  A    between atoms: _550  and  _552
REMARK  235  A    between atoms: _552  and  _553
REMARK  236  A    between atoms: _552  and  _555
REMARK  237  A    between atoms: _555  and  _556
REMARK  238  A    between atoms: _556  and  _557
REMARK  239  A    between atoms: _560  and  _561
REMARK  240  A    between atoms: _566  and  _568
REMARK  241  A    between atoms: _568  and  _569
REMARK  242  A    between atoms: _568  and  _571
REMARK  243  A    between atoms: _571  and  _572
REMARK  244  A    between atoms: _575  and  _577
REMARK  245  A    between atoms: _577  and  _578
REMARK  246  A    between atoms: _577  and  _580
REMARK  247  A    between atoms: _580  and  _581
REMARK  248  A    between atoms: _581  and  _582
REMARK  249  A    between atoms: _582  and  _583
REMARK  250  A    between atoms: _592  and  _594
REMARK  251  A    between atoms: _594  and  _595
REMARK  252  A    between atoms: _594  and  _597
REMARK  253  A    between atoms: _597  and  _598
REMARK  254  A    between atoms: _598  and  _599
REMARK  255  A    between atoms: _601  and  _603
REMARK  256  A    between atoms: _603  and  _604
REMARK  257  A    between atoms: _603  and  _606
REMARK  258  A    between atoms: _606  and  _607
REMARK                            x       y       z     vdW  Elec       q    Type
REMARK                         _______ _______ _______ _____ _____    ______ ____
ROOT
ATOM      1  O   HOH     1      52.237  12.228  81.760  0.00  0.00    +0.000 OA
ENDROOT
TORSDOF 0
REMARK  Name = ../refined-set-2016/1fcy/1fcy_pocket.pdb
REMARK  258 active torsions:
REMARK  status: ('A' for Active; 'I' for Inactive)
REMARK    1  A    between atoms: _1  and  _3
REMARK    2  A    between atoms: _3  and  _4
REMARK    3  A    between atoms: _3  and  _6
REMARK    4  A    between atoms: _6  and  _7
REMARK    5  A    between atoms: _10  and  _12
REMARK    6  A    between atoms: _12  and  _13
REMARK    7  A    between atoms: _12  and  _15
REMARK    8  A    between atoms: _15  and  _16
REMARK    9  A    between atoms: _23  and  _24
REMARK   10  A    between atoms: _29  and  _31
REMARK   11  A    between atoms: _31  and  _32
REMARK   12  A    between atoms: _31  and  _34
REMARK   13  A    between atoms: _34  and  _35
REMARK   14  A    between atoms: _38  and  _40
REMARK   15  A    between atoms: _40  and  _41
REMARK   16  A    between atoms: _40  and  _43
REMARK   17  A    between atoms: _43  and  _44
REMARK   18  A    between atoms: _54  and  _56
REMARK   19  A    between atoms: _56  and  _57
REMARK   20  A    between atoms: _56  and  _59
REMARK   21  A    between atoms: _59  and  _60
REMARK   22  A    between atoms: _60  and  _61
REMARK   23  A    between atoms: _61  and  _62
REMARK   24  A    between atoms: _62  and  _63
REMARK   25  A    between atoms: _67  and  _69
REMARK   26  A    between atoms: _69  and  _70
REMARK   27  A    between atoms: _69  and  _72
REMARK   28  A    between atoms: _72  and  _73
REMARK   29  A    between atoms: _79  and  _81
REMARK   30  A    between atoms: _81  and  _82
REMARK   31  A    between atoms: _81  and  _84
REMARK   32  A    between atoms: _84  and  _85
REMARK   33  A    between atoms: _87  and  _89
REMARK   34  A    between atoms: _89  and  _90
REMARK   35  A    between atoms: _89  and  _92
REMARK   36  A    between atoms: _92  and  _93
REMARK   37  A    between atoms: _93  and  _94
REMARK   38  A    between atoms: _97  and  _99
REMARK   39  A    between atoms: _99  and  _100
REMARK   40  A    between atoms: _99  and  _102
REMARK   41  A    between atoms: _102  and  _103
REMARK   42  A    between atoms: _106  and  _108
REMARK   43  A    between atoms: _108  and  _109
REMARK   44  A    between atoms: _112  and  _114
REMARK   45  A    between atoms: _114  and  _115
REMARK   46  A    between atoms: _114  and  _117
REMARK   47  A    between atoms: _117  and  _118
REMARK   48  A    between atoms: _121  and  _123
REMARK   49  A    between atoms: _123  and  _124
REMARK   50  A    between atoms: _123  and  _126
REMARK   51  A    between atoms: _127  and  _128
REMARK   52  A    between atoms: _128  and  _129
REMARK   53  A    between atoms: _129  and  _130
REMARK   54  A    between atoms: _134  and  _136
REMARK   55  A    between atoms: _136  and  _137
REMARK   56  A    between atoms: _136  and  _139
REMARK   57  A    between atoms: _141  and  _143
REMARK   58  A    between atoms: _143  and  _144
REMARK   59  A    between atoms: _143  and  _146
REMARK   60  A    between atoms: _146  and  _147
REMARK   61  A    between atoms: _150  and  _152
REMARK   62  A    between atoms: _152  and  _153
REMARK   63  A    between atoms: _152  and  _155
REMARK   64  A    between atoms: _155  and  _156
REMARK   65  A    between atoms: _156  and  _157
REMARK   66  A    between atoms: _157  and  _158
REMARK   67  A    between atoms: _158  and  _159
REMARK   68  A    between atoms: _163  and  _165
REMARK   69  A    between atoms: _165  and  _166
REMARK   70  A    between atoms: _165  and  _168
REMARK   71  A    between atoms: _168  and  _169
REMARK   72  A    between atoms: _172  and  _174
REMARK   73  A    between atoms: _174  and  _175
REMARK   74  A    between atoms: _174  and  _177
REMARK   75  A    between atoms: _179  and  _181
REMARK   76  A    between atoms: _181  and  _182
REMARK   77  A    between atoms: _181  and  _184
REMARK   78  A    between atoms: _184  and  _185
REMARK   79  A    between atoms: _188  and  _190
REMARK   80  A    between atoms: _190  and  _191
REMARK   81  A    between atoms: _190  and  _193
REMARK   82  A    between atoms: _193  and  _194
REMARK   83  A    between atoms: _197  and  _199
REMARK   84  A    between atoms: _199  and  _200
REMARK   85  A    between atoms: _199  and  _202
REMARK   86  A    between atoms: _202  and  _203
REMARK   87  A    between atoms: _206  and  _208
REMARK   88  A    between atoms: _208  and  _209
REMARK   89  A    between atoms: _208  and  _211
REMARK   90  A    between atoms: _211  and  _212
REMARK   91  A    between atoms: _215  and  _217
REMARK   92  A    between atoms: _217  and  _218
REMARK   93  A    between atoms: _217  and  _220
REMARK   94  A    between atoms: _220  and  _221
REMARK   95  A    between atoms: _221  and  _222
REMARK   96  A    between atoms: _224  and  _226
REMARK   97  A    between atoms: _226  and  _227
REMARK   98  A    between atoms: _226  and  _229
REMARK   99  A    between atoms: _229  and  _230
REMARK  100  A    between atoms: _233  and  _235
REMARK  101  A    between atoms: _235  and  _236
REMARK  102  A    between atoms: _235  and  _238
REMARK  103  A    between atoms: _238  and  _239
REMARK  104  A    between atoms: _239  and  _240
REMARK  105  A    between atoms: _240  and  _241
REMARK  106  A    between atoms: _250  and  _252
REMARK  107  A    between atoms: _252  and  _253
REMARK  108  A    between atoms: _252  and  _255
REMARK  109  A    between atoms: _255  and  _256
REMARK  110  A    between atoms: _259  and  _261
REMARK  111  A    between atoms: _261  and  _262
REMARK  112  A    between atoms: _261  and  _264
REMARK  113  A    between atoms: _266  and  _268
REMARK  114  A    between atoms: _268  and  _269
REMARK  115  A    between atoms: _268  and  _271
REMARK  116  A    between atoms: _271  and  _272
REMARK  117  A    between atoms: _275  and  _277
REMARK  118  A    between atoms: _277  and  _278
REMARK  119  A    between atoms: _277  and  _280
REMARK  120  A    between atoms: _280  and  _281
REMARK  121  A    between atoms: _281  and  _282
REMARK  122  A    between atoms: _282  and  _283
REMARK  123  A    between atoms: _292  and  _294
REMARK  124  A    between atoms: _294  and  _295
REMARK  125  A    between atoms: _294  and  _297
REMARK  126  A    between atoms: _297  and  _298
REMARK  127  A    between atoms: _298  and  _299
REMARK  128  A    between atoms: _301  and  _303
REMARK  129  A    between atoms: _303  and  _304
REMARK  130  A    between atoms: _303  and  _306
REMARK  131  A    between atoms: _306  and  _307
REMARK  132  A    between atoms: _310  and  _312
REMARK  133  A    between atoms: _312  and  _313
REMARK  134  A    between atoms: _312  and  _315
REMARK  135  A    between atoms: _315  and  _316
REMARK  136  A    between atoms: _322  and  _324
REMARK  137  A    between atoms: _324  and  _325
REMARK  138  A    between atoms: _324  and  _327
REMARK  139  A    between atoms: _327  and  _328
REMARK  140  A    between atoms: _330  and  _332
REMARK  141  A    between atoms: _332  and  _333
REMARK  142  A    between atoms: _332  and  _335
REMARK  143  A    between atoms: _335  and  _336
REMARK  144  A    between atoms: _339  and  _341
REMARK  145  A    between atoms: _341  and  _342
REMARK  146  A    between atoms: _344  and  _346
REMARK  147  A    between atoms: _346  and  _347
REMARK  148  A    between atoms: _346  and  _349
REMARK  149  A    between atoms: _349  and  _350
REMARK  150  A    between atoms: _353  and  _355
REMARK  151  A    between atoms: _355  and  _356
REMARK  152  A    between atoms: _355  and  _358
REMARK  153  A    between atoms: _358  and  _359
REMARK  154  A    between atoms: _359  and  _360
REMARK  155  A    between atoms: _362  and  _364
REMARK  156  A    between atoms: _364  and  _365
REMARK  157  A    between atoms: _364  and  _367
REMARK  158  A    between atoms: _367  and  _368
REMARK  159  A    between atoms: _373  and  _375
REMARK  160  A    between atoms: _375  and  _376
REMARK  161  A    between atoms: _379  and  _381
REMARK  162  A    between atoms: _381  and  _382
REMARK  163  A    between atoms: _384  and  _386
REMARK  164  A    between atoms: _386  and  _387
REMARK  165  A    between atoms: _386  and  _389
REMARK  166  A    between atoms: _389  and  _390
REMARK  167  A    between atoms: _396  and  _398
REMARK  168  A    between atoms: _398  and  _399
REMARK  169  A    between atoms: _401  and  _403
REMARK  170  A    between atoms: _403  and  _404
REMARK  171  A    between atoms: _403  and  _406
REMARK  172  A    between atoms: _406  and  _407
REMARK  173  A    between atoms: _410  and  _412
REMARK  174  A    between atoms: _412  and  _413
REMARK  175  A    between atoms: _412  and  _415
REMARK  176  A    between atoms: _415  and  _416
REMARK  177  A    between atoms: _419  and  _421
REMARK  178  A    between atoms: _421  and  _422
REMARK  179  A    between atoms: _421  and  _424
REMARK  180  A    between atoms: _427  and  _429
REMARK  181  A    between atoms: _429  and  _430
REMARK  182  A    between atoms: _429  and  _432
REMARK  183  A    between atoms: _432  and  _433
REMARK  184  A    between atoms: _436  and  _438
REMARK  185  A    between atoms: _438  and  _439
REMARK  186  A    between atoms: _438  and  _441
REMARK  187  A    between atoms: _441  and  _442
REMARK  188  A    between atoms: _444  and  _446
REMARK  189  A    between atoms: _446  and  _447
REMARK  190  A    between atoms: _446  and  _449
REMARK  191  A    between atoms: _449  and  _450
REMARK  192  A    between atoms: _450  and  _451
REMARK  193  A    between atoms: _451  and  _452
REMARK  194  A    between atoms: _452  and  _453
REMARK  195  A    between atoms: _457  and  _459
REMARK  196  A    between atoms: _459  and  _460
REMARK  197  A    between atoms: _462  and  _464
REMARK  198  A    between atoms: _464  and  _465
REMARK  199  A    between atoms: _468  and  _470
REMARK  200  A    between atoms: _470  and  _471
REMARK  201  A    between atoms: _470  and  _473
REMARK  202  A    between atoms: _474  and  _475
REMARK  203  A    between atoms: _478  and  _480
REMARK  204  A    between atoms: _480  and  _481
REMARK  205  A    between atoms: _480  and  _483
REMARK  206  A    between atoms: _483  and  _484
REMARK  207  A    between atoms: _484  and  _485
REMARK  208  A    between atoms: _485  and  _486
REMARK  209  A    between atoms: _495  and  _497
REMARK  210  A    between atoms: _497  and  _498
REMARK  211  A    between atoms: _501  and  _503
REMARK  212  A    between atoms: _503  and  _504
REMARK  213  A    between atoms: _503  and  _506
REMARK  214  A    between atoms: _506  and  _507
REMARK  215  A    between atoms: _510  and  _512
REMARK  216  A    between atoms: _512  and  _513
REMARK  217  A    between atoms: _512  and  _515
REMARK  218  A    between atoms: _515  and  _516
REMARK  219  A    between atoms: _519  and  _521
REMARK  220  A    between atoms: _521  and  _522
REMARK  221  A    between atoms: _521  and  _524
REMARK  222  A    between atoms: _524  and  _525
REMARK  223  A    between atoms: _528  and  _530
REMARK  224  A    between atoms: _530  and  _531
REMARK  225  A    between atoms: _530  and  _533
REMARK  226  A    between atoms: _533  and  _534
REMARK  227  A    between atoms: _534  and  _535
REMARK  228  A    between atoms: _535  and  _536
REMARK  229  A    between atoms: _536  and  _537
REMARK  230  A    between atoms: _541  and  _543
REMARK  231  A    between atoms: _543  and  _544
REMARK  232  A    between atoms: _543  and  _546
REMARK  233  A    between atoms: _546  and  _547
REMARK  234  A    between atoms: _550  and  _552
REMARK  235  A    between atoms: _552  and  _553
REMARK  236  A    between atoms: _552  and  _555
REMARK  237  A    between atoms: _555  and  _556
REMARK  238  A    between atoms: _556  and  _557
REMARK  239  A    between atoms: _560  and  _561
REMARK  240  A    between atoms: _566  and  _568
REMARK  241  A    between atoms: _568  and  _569
REMARK  242  A    between atoms: _568  and  _571
REMARK  243  A    between atoms: _571  and  _572
REMARK  244  A    between atoms: _575  and  _577
REMARK  245  A    between atoms: _577  and  _578
REMARK  246  A    between atoms: _577  and  _580
REMARK  247  A    between atoms: _580  and  _581
REMARK  248  A    between atoms: _581  and  _582
REMARK  249  A    between atoms: _582  and  _583
REMARK  250  A    between atoms: _592  and  _594
REMARK  251  A    between atoms: _594  and  _595
REMARK  252  A    between atoms: _594  and  _597
REMARK  253  A    between atoms: _597  and  _598
REMARK  254  A    between atoms: _598  and  _599
REMARK  255  A    between atoms: _601  and  _603
REMARK  256  A    between atoms: _603  and  _604
REMARK  257  A    between atoms: _603  and  _606
REMARK  258  A    between atoms: _606  and  _607
REMARK                            x       y       z     vdW  Elec       q    Type
REMARK                         _______ _______ _______ _____ _____    ______ ____
ROOT
ATOM      1  O   HOH     1      51.755  18.901  80.166  0.00  0.00    +0.000 OA
ENDROOT
TORSDOF 0
REMARK  Name = ../refined-set-2016/1fcy/1fcy_pocket.pdb
REMARK  258 active torsions:
REMARK  status: ('A' for Active; 'I' for Inactive)
REMARK    1  A    between atoms: _1  and  _3
REMARK    2  A    between atoms: _3  and  _4
REMARK    3  A    between atoms: _3  and  _6
REMARK    4  A    between atoms: _6  and  _7
REMARK    5  A    between atoms: _10  and  _12
REMARK    6  A    between atoms: _12  and  _13
REMARK    7  A    between atoms: _12  and  _15
REMARK    8  A    between atoms: _15  and  _16
REMARK    9  A    between atoms: _23  and  _24
REMARK   10  A    between atoms: _29  and  _31
REMARK   11  A    between atoms: _31  and  _32
REMARK   12  A    between atoms: _31  and  _34
REMARK   13  A    between atoms: _34  and  _35
REMARK   14  A    between atoms: _38  and  _40
REMARK   15  A    between atoms: _40  and  _41
REMARK   16  A    between atoms: _40  and  _43
REMARK   17  A    between atoms: _43  and  _44
REMARK   18  A    between atoms: _54  and  _56
REMARK   19  A    between atoms: _56  and  _57
REMARK   20  A    between atoms: _56  and  _59
REMARK   21  A    between atoms: _59  and  _60
REMARK   22  A    between atoms: _60  and  _61
REMARK   23  A    between atoms: _61  and  _62
REMARK   24  A    between atoms: _62  and  _63
REMARK   25  A    between atoms: _67  and  _69
REMARK   26  A    between atoms: _69  and  _70
REMARK   27  A    between atoms: _69  and  _72
REMARK   28  A    between atoms: _72  and  _73
REMARK   29  A    between atoms: _79  and  _81
REMARK   30  A    between atoms: _81  and  _82
REMARK   31  A    between atoms: _81  and  _84
REMARK   32  A    between atoms: _84  and  _85
REMARK   33  A    between atoms: _87  and  _89
REMARK   34  A    between atoms: _89  and  _90
REMARK   35  A    between atoms: _89  and  _92
REMARK   36  A    between atoms: _92  and  _93
REMARK   37  A    between atoms: _93  and  _94
REMARK   38  A    between atoms: _97  and  _99
REMARK   39  A    between atoms: _99  and  _100
REMARK   40  A    between atoms: _99  and  _102
REMARK   41  A    between atoms: _102  and  _103
REMARK   42  A    between atoms: _106  and  _108
REMARK   43  A    between atoms: _108  and  _109
REMARK   44  A    between atoms: _112  and  _114
REMARK   45  A    between atoms: _114  and  _115
REMARK   46  A    between atoms: _114  and  _117
REMARK   47  A    between atoms: _117  and  _118
REMARK   48  A    between atoms: _121  and  _123
REMARK   49  A    between atoms: _123  and  _124
REMARK   50  A    between atoms: _123  and  _126
REMARK   51  A    between atoms: _127  and  _128
REMARK   52  A    between atoms: _128  and  _129
REMARK   53  A    between atoms: _129  and  _130
REMARK   54  A    between atoms: _134  and  _136
REMARK   55  A    between atoms: _136  and  _137
REMARK   56  A    between atoms: _136  and  _139
REMARK   57  A    between atoms: _141  and  _143
REMARK   58  A    between atoms: _143  and  _144
REMARK   59  A    between atoms: _143  and  _146
REMARK   60  A    between atoms: _146  and  _147
REMARK   61  A    between atoms: _150  and  _152
REMARK   62  A    between atoms: _152  and  _153
REMARK   63  A    between atoms: _152  and  _155
REMARK   64  A    between atoms: _155  and  _156
REMARK   65  A    between atoms: _156  and  _157
REMARK   66  A    between atoms: _157  and  _158
REMARK   67  A    between atoms: _158  and  _159
REMARK   68  A    between atoms: _163  and  _165
REMARK   69  A    between atoms: _165  and  _166
REMARK   70  A    between atoms: _165  and  _168
REMARK   71  A    between atoms: _168  and  _169
REMARK   72  A    between atoms: _172  and  _174
REMARK   73  A    between atoms: _174  and  _175
REMARK   74  A    between atoms: _174  and  _177
REMARK   75  A    between atoms: _179  and  _181
REMARK   76  A    between atoms: _181  and  _182
REMARK   77  A    between atoms: _181  and  _184
REMARK   78  A    between atoms: _184  and  _185
REMARK   79  A    between atoms: _188  and  _190
REMARK   80  A    between atoms: _190  and  _191
REMARK   81  A    between atoms: _190  and  _193
REMARK   82  A    between atoms: _193  and  _194
REMARK   83  A    between atoms: _197  and  _199
REMARK   84  A    between atoms: _199  and  _200
REMARK   85  A    between atoms: _199  and  _202
REMARK   86  A    between atoms: _202  and  _203
REMARK   87  A    between atoms: _206  and  _208
REMARK   88  A    between atoms: _208  and  _209
REMARK   89  A    between atoms: _208  and  _211
REMARK   90  A    between atoms: _211  and  _212
REMARK   91  A    between atoms: _215  and  _217
REMARK   92  A    between atoms: _217  and  _218
REMARK   93  A    between atoms: _217  and  _220
REMARK   94  A    between atoms: _220  and  _221
REMARK   95  A    between atoms: _221  and  _222
REMARK   96  A    between atoms: _224  and  _226
REMARK   97  A    between atoms: _226  and  _227
REMARK   98  A    between atoms: _226  and  _229
REMARK   99  A    between atoms: _229  and  _230
REMARK  100  A    between atoms: _233  and  _235
REMARK  101  A    between atoms: _235  and  _236
REMARK  102  A    between atoms: _235  and  _238
REMARK  103  A    between atoms: _238  and  _239
REMARK  104  A    between atoms: _239  and  _240
REMARK  105  A    between atoms: _240  and  _241
REMARK  106  A    between atoms: _250  and  _252
REMARK  107  A    between atoms: _252  and  _253
REMARK  108  A    between atoms: _252  and  _255
REMARK  109  A    between atoms: _255  and  _256
REMARK  110  A    between atoms: _259  and  _261
REMARK  111  A    between atoms: _261  and  _262
REMARK  112  A    between atoms: _261  and  _264
REMARK  113  A    between atoms: _266  and  _268
REMARK  114  A    between atoms: _268  and  _269
REMARK  115  A    between atoms: _268  and  _271
REMARK  116  A    between atoms: _271  and  _272
REMARK  117  A    between atoms: _275  and  _277
REMARK  118  A    between atoms: _277  and  _278
REMARK  119  A    between atoms: _277  and  _280
REMARK  120  A    between atoms: _280  and  _281
REMARK  121  A    between atoms: _281  and  _282
REMARK  122  A    between atoms: _282  and  _283
REMARK  123  A    between atoms: _292  and  _294
REMARK  124  A    between atoms: _294  and  _295
REMARK  125  A    between atoms: _294  and  _297
REMARK  126  A    between atoms: _297  and  _298
REMARK  127  A    between atoms: _298  and  _299
REMARK  128  A    between atoms: _301  and  _303
REMARK  129  A    between atoms: _303  and  _304
REMARK  130  A    between atoms: _303  and  _306
REMARK  131  A    between atoms: _306  and  _307
REMARK  132  A    between atoms: _310  and  _312
REMARK  133  A    between atoms: _312  and  _313
REMARK  134  A    between atoms: _312  and  _315
REMARK  135  A    between atoms: _315  and  _316
REMARK  136  A    between atoms: _322  and  _324
REMARK  137  A    between atoms: _324  and  _325
REMARK  138  A    between atoms: _324  and  _327
REMARK  139  A    between atoms: _327  and  _328
REMARK  140  A    between atoms: _330  and  _332
REMARK  141  A    between atoms: _332  and  _333
REMARK  142  A    between atoms: _332  and  _335
REMARK  143  A    between atoms: _335  and  _336
REMARK  144  A    between atoms: _339  and  _341
REMARK  145  A    between atoms: _341  and  _342
REMARK  146  A    between atoms: _344  and  _346
REMARK  147  A    between atoms: _346  and  _347
REMARK  148  A    between atoms: _346  and  _349
REMARK  149  A    between atoms: _349  and  _350
REMARK  150  A    between atoms: _353  and  _355
REMARK  151  A    between atoms: _355  and  _356
REMARK  152  A    between atoms: _355  and  _358
REMARK  153  A    between atoms: _358  and  _359
REMARK  154  A    between atoms: _359  and  _360
REMARK  155  A    between atoms: _362  and  _364
REMARK  156  A    between atoms: _364  and  _365
REMARK  157  A    between atoms: _364  and  _367
REMARK  158  A    between atoms: _367  and  _368
REMARK  159  A    between atoms: _373  and  _375
REMARK  160  A    between atoms: _375  and  _376
REMARK  161  A    between atoms: _379  and  _381
REMARK  162  A    between atoms: _381  and  _382
REMARK  163  A    between atoms: _384  and  _386
REMARK  164  A    between atoms: _386  and  _387
REMARK  165  A    between atoms: _386  and  _389
REMARK  166  A    between atoms: _389  and  _390
REMARK  167  A    between atoms: _396  and  _398
REMARK  168  A    between atoms: _398  and  _399
REMARK  169  A    between atoms: _401  and  _403
REMARK  170  A    between atoms: _403  and  _404
REMARK  171  A    between atoms: _403  and  _406
REMARK  172  A    between atoms: _406  and  _407
REMARK  173  A    between atoms: _410  and  _412
REMARK  174  A    between atoms: _412  and  _413
REMARK  175  A    between atoms: _412  and  _415
REMARK  176  A    between atoms: _415  and  _416
REMARK  177  A    between atoms: _419  and  _421
REMARK  178  A    between atoms: _421  and  _422
REMARK  179  A    between atoms: _421  and  _424
REMARK  180  A    between atoms: _427  and  _429
REMARK  181  A    between atoms: _429  and  _430
REMARK  182  A    between atoms: _429  and  _432
REMARK  183  A    between atoms: _432  and  _433
REMARK  184  A    between atoms: _436  and  _438
REMARK  185  A    between atoms: _438  and  _439
REMARK  186  A    between atoms: _438  and  _441
REMARK  187  A    between atoms: _441  and  _442
REMARK  188  A    between atoms: _444  and  _446
REMARK  189  A    between atoms: _446  and  _447
REMARK  190  A    between atoms: _446  and  _449
REMARK  191  A    between atoms: _449  and  _450
REMARK  192  A    between atoms: _450  and  _451
REMARK  193  A    between atoms: _451  and  _452
REMARK  194  A    between atoms: _452  and  _453
REMARK  195  A    between atoms: _457  and  _459
REMARK  196  A    between atoms: _459  and  _460
REMARK  197  A    between atoms: _462  and  _464
REMARK  198  A    between atoms: _464  and  _465
REMARK  199  A    between atoms: _468  and  _470
REMARK  200  A    between atoms: _470  and  _471
REMARK  201  A    between atoms: _470  and  _473
REMARK  202  A    between atoms: _474  and  _475
REMARK  203  A    between atoms: _478  and  _480
REMARK  204  A    between atoms: _480  and  _481
REMARK  205  A    between atoms: _480  and  _483
REMARK  206  A    between atoms: _483  and  _484
REMARK  207  A    between atoms: _484  and  _485
REMARK  208  A    between atoms: _485  and  _486
REMARK  209  A    between atoms: _495  and  _497
REMARK  210  A    between atoms: _497  and  _498
REMARK  211  A    between atoms: _501  and  _503
REMARK  212  A    between atoms: _503  and  _504
REMARK  213  A    between atoms: _503  and  _506
REMARK  214  A    between atoms: _506  and  _507
REMARK  215  A    between atoms: _510  and  _512
REMARK  216  A    between atoms: _512  and  _513
REMARK  217  A    between atoms: _512  and  _515
REMARK  218  A    between atoms: _515  and  _516
REMARK  219  A    between atoms: _519  and  _521
REMARK  220  A    between atoms: _521  and  _522
REMARK  221  A    between atoms: _521  and  _524
REMARK  222  A    between atoms: _524  and  _525
REMARK  223  A    between atoms: _528  and  _530
REMARK  224  A    between atoms: _530  and  _531
REMARK  225  A    between atoms: _530  and  _533
REMARK  226  A    between atoms: _533  and  _534
REMARK  227  A    between atoms: _534  and  _535
REMARK  228  A    between atoms: _535  and  _536
REMARK  229  A    between atoms: _536  and  _537
REMARK  230  A    between atoms: _541  and  _543
REMARK  231  A    between atoms: _543  and  _544
REMARK  232  A    between atoms: _543  and  _546
REMARK  233  A    between atoms: _546  and  _547
REMARK  234  A    between atoms: _550  and  _552
REMARK  235  A    between atoms: _552  and  _553
REMARK  236  A    between atoms: _552  and  _555
REMARK  237  A    between atoms: _555  and  _556
REMARK  238  A    between atoms: _556  and  _557
REMARK  239  A    between atoms: _560  and  _561
REMARK  240  A    between atoms: _566  and  _568
REMARK  241  A    between atoms: _568  and  _569
REMARK  242  A    between atoms: _568  and  _571
REMARK  243  A    between atoms: _571  and  _572
REMARK  244  A    between atoms: _575  and  _577
REMARK  245  A    between atoms: _577  and  _578
REMARK  246  A    between atoms: _577  and  _580
REMARK  247  A    between atoms: _580  and  _581
REMARK  248  A    between atoms: _581  and  _582
REMARK  249  A    between atoms: _582  and  _583
REMARK  250  A    between atoms: _592  and  _594
REMARK  251  A    between atoms: _594  and  _595
REMARK  252  A    between atoms: _594  and  _597
REMARK  253  A    between atoms: _597  and  _598
REMARK  254  A    between atoms: _598  and  _599
REMARK  255  A    between atoms: _601  and  _603
REMARK  256  A    between atoms: _603  and  _604
REMARK  257  A    between atoms: _603  and  _606
REMARK  258  A    between atoms: _606  and  _607
REMARK                            x       y       z     vdW  Elec       q    Type
REMARK                         _______ _______ _______ _____ _____    ______ ____
ROOT
ATOM      1  O   HOH     1      50.600  10.668  86.257  0.00  0.00    +0.000 OA
ENDROOT
TORSDOF 0
REMARK  Name = ../refined-set-2016/1fcy/1fcy_pocket.pdb
REMARK  258 active torsions:
REMARK  status: ('A' for Active; 'I' for Inactive)
REMARK    1  A    between atoms: _1  and  _3
REMARK    2  A    between atoms: _3  and  _4
REMARK    3  A    between atoms: _3  and  _6
REMARK    4  A    between atoms: _6  and  _7
REMARK    5  A    between atoms: _10  and  _12
REMARK    6  A    between atoms: _12  and  _13
REMARK    7  A    between atoms: _12  and  _15
REMARK    8  A    between atoms: _15  and  _16
REMARK    9  A    between atoms: _23  and  _24
REMARK   10  A    between atoms: _29  and  _31
REMARK   11  A    between atoms: _31  and  _32
REMARK   12  A    between atoms: _31  and  _34
REMARK   13  A    between atoms: _34  and  _35
REMARK   14  A    between atoms: _38  and  _40
REMARK   15  A    between atoms: _40  and  _41
REMARK   16  A    between atoms: _40  and  _43
REMARK   17  A    between atoms: _43  and  _44
REMARK   18  A    between atoms: _54  and  _56
REMARK   19  A    between atoms: _56  and  _57
REMARK   20  A    between atoms: _56  and  _59
REMARK   21  A    between atoms: _59  and  _60
REMARK   22  A    between atoms: _60  and  _61
REMARK   23  A    between atoms: _61  and  _62
REMARK   24  A    between atoms: _62  and  _63
REMARK   25  A    between atoms: _67  and  _69
REMARK   26  A    between atoms: _69  and  _70
REMARK   27  A    between atoms: _69  and  _72
REMARK   28  A    between atoms: _72  and  _73
REMARK   29  A    between atoms: _79  and  _81
REMARK   30  A    between atoms: _81  and  _82
REMARK   31  A    between atoms: _81  and  _84
REMARK   32  A    between atoms: _84  and  _85
REMARK   33  A    between atoms: _87  and  _89
REMARK   34  A    between atoms: _89  and  _90
REMARK   35  A    between atoms: _89  and  _92
REMARK   36  A    between atoms: _92  and  _93
REMARK   37  A    between atoms: _93  and  _94
REMARK   38  A    between atoms: _97  and  _99
REMARK   39  A    between atoms: _99  and  _100
REMARK   40  A    between atoms: _99  and  _102
REMARK   41  A    between atoms: _102  and  _103
REMARK   42  A    between atoms: _106  and  _108
REMARK   43  A    between atoms: _108  and  _109
REMARK   44  A    between atoms: _112  and  _114
REMARK   45  A    between atoms: _114  and  _115
REMARK   46  A    between atoms: _114  and  _117
REMARK   47  A    between atoms: _117  and  _118
REMARK   48  A    between atoms: _121  and  _123
REMARK   49  A    between atoms: _123  and  _124
REMARK   50  A    between atoms: _123  and  _126
REMARK   51  A    between atoms: _127  and  _128
REMARK   52  A    between atoms: _128  and  _129
REMARK   53  A    between atoms: _129  and  _130
REMARK   54  A    between atoms: _134  and  _136
REMARK   55  A    between atoms: _136  and  _137
REMARK   56  A    between atoms: _136  and  _139
REMARK   57  A    between atoms: _141  and  _143
REMARK   58  A    between atoms: _143  and  _144
REMARK   59  A    between atoms: _143  and  _146
REMARK   60  A    between atoms: _146  and  _147
REMARK   61  A    between atoms: _150  and  _152
REMARK   62  A    between atoms: _152  and  _153
REMARK   63  A    between atoms: _152  and  _155
REMARK   64  A    between atoms: _155  and  _156
REMARK   65  A    between atoms: _156  and  _157
REMARK   66  A    between atoms: _157  and  _158
REMARK   67  A    between atoms: _158  and  _159
REMARK   68  A    between atoms: _163  and  _165
REMARK   69  A    between atoms: _165  and  _166
REMARK   70  A    between atoms: _165  and  _168
REMARK   71  A    between atoms: _168  and  _169
REMARK   72  A    between atoms: _172  and  _174
REMARK   73  A    between atoms: _174  and  _175
REMARK   74  A    between atoms: _174  and  _177
REMARK   75  A    between atoms: _179  and  _181
REMARK   76  A    between atoms: _181  and  _182
REMARK   77  A    between atoms: _181  and  _184
REMARK   78  A    between atoms: _184  and  _185
REMARK   79  A    between atoms: _188  and  _190
REMARK   80  A    between atoms: _190  and  _191
REMARK   81  A    between atoms: _190  and  _193
REMARK   82  A    between atoms: _193  and  _194
REMARK   83  A    between atoms: _197  and  _199
REMARK   84  A    between atoms: _199  and  _200
REMARK   85  A    between atoms: _199  and  _202
REMARK   86  A    between atoms: _202  and  _203
REMARK   87  A    between atoms: _206  and  _208
REMARK   88  A    between atoms: _208  and  _209
REMARK   89  A    between atoms: _208  and  _211
REMARK   90  A    between atoms: _211  and  _212
REMARK   91  A    between atoms: _215  and  _217
REMARK   92  A    between atoms: _217  and  _218
REMARK   93  A    between atoms: _217  and  _220
REMARK   94  A    between atoms: _220  and  _221
REMARK   95  A    between atoms: _221  and  _222
REMARK   96  A    between atoms: _224  and  _226
REMARK   97  A    between atoms: _226  and  _227
REMARK   98  A    between atoms: _226  and  _229
REMARK   99  A    between atoms: _229  and  _230
REMARK  100  A    between atoms: _233  and  _235
REMARK  101  A    between atoms: _235  and  _236
REMARK  102  A    between atoms: _235  and  _238
REMARK  103  A    between atoms: _238  and  _239
REMARK  104  A    between atoms: _239  and  _240
REMARK  105  A    between atoms: _240  and  _241
REMARK  106  A    between atoms: _250  and  _252
REMARK  107  A    between atoms: _252  and  _253
REMARK  108  A    between atoms: _252  and  _255
REMARK  109  A    between atoms: _255  and  _256
REMARK  110  A    between atoms: _259  and  _261
REMARK  111  A    between atoms: _261  and  _262
REMARK  112  A    between atoms: _261  and  _264
REMARK  113  A    between atoms: _266  and  _268
REMARK  114  A    between atoms: _268  and  _269
REMARK  115  A    between atoms: _268  and  _271
REMARK  116  A    between atoms: _271  and  _272
REMARK  117  A    between atoms: _275  and  _277
REMARK  118  A    between atoms: _277  and  _278
REMARK  119  A    between atoms: _277  and  _280
REMARK  120  A    between atoms: _280  and  _281
REMARK  121  A    between atoms: _281  and  _282
REMARK  122  A    between atoms: _282  and  _283
REMARK  123  A    between atoms: _292  and  _294
REMARK  124  A    between atoms: _294  and  _295
REMARK  125  A    between atoms: _294  and  _297
REMARK  126  A    between atoms: _297  and  _298
REMARK  127  A    between atoms: _298  and  _299
REMARK  128  A    between atoms: _301  and  _303
REMARK  129  A    between atoms: _303  and  _304
REMARK  130  A    between atoms: _303  and  _306
REMARK  131  A    between atoms: _306  and  _307
REMARK  132  A    between atoms: _310  and  _312
REMARK  133  A    between atoms: _312  and  _313
REMARK  134  A    between atoms: _312  and  _315
REMARK  135  A    between atoms: _315  and  _316
REMARK  136  A    between atoms: _322  and  _324
REMARK  137  A    between atoms: _324  and  _325
REMARK  138  A    between atoms: _324  and  _327
REMARK  139  A    between atoms: _327  and  _328
REMARK  140  A    between atoms: _330  and  _332
REMARK  141  A    between atoms: _332  and  _333
REMARK  142  A    between atoms: _332  and  _335
REMARK  143  A    between atoms: _335  and  _336
REMARK  144  A    between atoms: _339  and  _341
REMARK  145  A    between atoms: _341  and  _342
REMARK  146  A    between atoms: _344  and  _346
REMARK  147  A    between atoms: _346  and  _347
REMARK  148  A    between atoms: _346  and  _349
REMARK  149  A    between atoms: _349  and  _350
REMARK  150  A    between atoms: _353  and  _355
REMARK  151  A    between atoms: _355  and  _356
REMARK  152  A    between atoms: _355  and  _358
REMARK  153  A    between atoms: _358  and  _359
REMARK  154  A    between atoms: _359  and  _360
REMARK  155  A    between atoms: _362  and  _364
REMARK  156  A    between atoms: _364  and  _365
REMARK  157  A    between atoms: _364  and  _367
REMARK  158  A    between atoms: _367  and  _368
REMARK  159  A    between atoms: _373  and  _375
REMARK  160  A    between atoms: _375  and  _376
REMARK  161  A    between atoms: _379  and  _381
REMARK  162  A    between atoms: _381  and  _382
REMARK  163  A    between atoms: _384  and  _386
REMARK  164  A    between atoms: _386  and  _387
REMARK  165  A    between atoms: _386  and  _389
REMARK  166  A    between atoms: _389  and  _390
REMARK  167  A    between atoms: _396  and  _398
REMARK  168  A    between atoms: _398  and  _399
REMARK  169  A    between atoms: _401  and  _403
REMARK  170  A    between atoms: _403  and  _404
REMARK  171  A    between atoms: _403  and  _406
REMARK  172  A    between atoms: _406  and  _407
REMARK  173  A    between atoms: _410  and  _412
REMARK  174  A    between atoms: _412  and  _413
REMARK  175  A    between atoms: _412  and  _415
REMARK  176  A    between atoms: _415  and  _416
REMARK  177  A    between atoms: _419  and  _421
REMARK  178  A    between atoms: _421  and  _422
REMARK  179  A    between atoms: _421  and  _424
REMARK  180  A    between atoms: _427  and  _429
REMARK  181  A    between atoms: _429  and  _430
REMARK  182  A    between atoms: _429  and  _432
REMARK  183  A    between atoms: _432  and  _433
REMARK  184  A    between atoms: _436  and  _438
REMARK  185  A    between atoms: _438  and  _439
REMARK  186  A    between atoms: _438  and  _441
REMARK  187  A    between atoms: _441  and  _442
REMARK  188  A    between atoms: _444  and  _446
REMARK  189  A    between atoms: _446  and  _447
REMARK  190  A    between atoms: _446  and  _449
REMARK  191  A    between atoms: _449  and  _450
REMARK  192  A    between atoms: _450  and  _451
REMARK  193  A    between atoms: _451  and  _452
REMARK  194  A    between atoms: _452  and  _453
REMARK  195  A    between atoms: _457  and  _459
REMARK  196  A    between atoms: _459  and  _460
REMARK  197  A    between atoms: _462  and  _464
REMARK  198  A    between atoms: _464  and  _465
REMARK  199  A    between atoms: _468  and  _470
REMARK  200  A    between atoms: _470  and  _471
REMARK  201  A    between atoms: _470  and  _473
REMARK  202  A    between atoms: _474  and  _475
REMARK  203  A    between atoms: _478  and  _480
REMARK  204  A    between atoms: _480  and  _481
REMARK  205  A    between atoms: _480  and  _483
REMARK  206  A    between atoms: _483  and  _484
REMARK  207  A    between atoms: _484  and  _485
REMARK  208  A    between atoms: _485  and  _486
REMARK  209  A    between atoms: _495  and  _497
REMARK  210  A    between atoms: _497  and  _498
REMARK  211  A    between atoms: _501  and  _503
REMARK  212  A    between atoms: _503  and  _504
REMARK  213  A    between atoms: _503  and  _506
REMARK  214  A    between atoms: _506  and  _507
REMARK  215  A    between atoms: _510  and  _512
REMARK  216  A    between atoms: _512  and  _513
REMARK  217  A    between atoms: _512  and  _515
REMARK  218  A    between atoms: _515  and  _516
REMARK  219  A    between atoms: _519  and  _521
REMARK  220  A    between atoms: _521  and  _522
REMARK  221  A    between atoms: _521  and  _524
REMARK  222  A    between atoms: _524  and  _525
REMARK  223  A    between atoms: _528  and  _530
REMARK  224  A    between atoms: _530  and  _531
REMARK  225  A    between atoms: _530  and  _533
REMARK  226  A    between atoms: _533  and  _534
REMARK  227  A    between atoms: _534  and  _535
REMARK  228  A    between atoms: _535  and  _536
REMARK  229  A    between atoms: _536  and  _537
REMARK  230  A    between atoms: _541  and  _543
REMARK  231  A    between atoms: _543  and  _544
REMARK  232  A    between atoms: _543  and  _546
REMARK  233  A    between atoms: _546  and  _547
REMARK  234  A    between atoms: _550  and  _552
REMARK  235  A    between atoms: _552  and  _553
REMARK  236  A    between atoms: _552  and  _555
REMARK  237  A    between atoms: _555  and  _556
REMARK  238  A    between atoms: _556  and  _557
REMARK  239  A    between atoms: _560  and  _561
REMARK  240  A    between atoms: _566  and  _568
REMARK  241  A    between atoms: _568  and  _569
REMARK  242  A    between atoms: _568  and  _571
REMARK  243  A    between atoms: _571  and  _572
REMARK  244  A    between atoms: _575  and  _577
REMARK  245  A    between atoms: _577  and  _578
REMARK  246  A    between atoms: _577  and  _580
REMARK  247  A    between atoms: _580  and  _581
REMARK  248  A    between atoms: _581  and  _582
REMARK  249  A    between atoms: _582  and  _583
REMARK  250  A    between atoms: _592  and  _594
REMARK  251  A    between atoms: _594  and  _595
REMARK  252  A    between atoms: _594  and  _597
REMARK  253  A    between atoms: _597  and  _598
REMARK  254  A    between atoms: _598  and  _599
REMARK  255  A    between atoms: _601  and  _603
REMARK  256  A    between atoms: _603  and  _604
REMARK  257  A    between atoms: _603  and  _606
REMARK  258  A    between atoms: _606  and  _607
REMARK                            x       y       z     vdW  Elec       q    Type
REMARK                         _______ _______ _______ _____ _____    ______ ____
ROOT
ATOM      1  O   HOH     1      49.326  12.174  87.426  0.00  0.00    +0.000 OA
ENDROOT
TORSDOF 0
REMARK  Name = ../refined-set-2016/1fcy/1fcy_pocket.pdb
REMARK  258 active torsions:
REMARK  status: ('A' for Active; 'I' for Inactive)
REMARK    1  A    between atoms: _1  and  _3
REMARK    2  A    between atoms: _3  and  _4
REMARK    3  A    between atoms: _3  and  _6
REMARK    4  A    between atoms: _6  and  _7
REMARK    5  A    between atoms: _10  and  _12
REMARK    6  A    between atoms: _12  and  _13
REMARK    7  A    between atoms: _12  and  _15
REMARK    8  A    between atoms: _15  and  _16
REMARK    9  A    between atoms: _23  and  _24
REMARK   10  A    between atoms: _29  and  _31
REMARK   11  A    between atoms: _31  and  _32
REMARK   12  A    between atoms: _31  and  _34
REMARK   13  A    between atoms: _34  and  _35
REMARK   14  A    between atoms: _38  and  _40
REMARK   15  A    between atoms: _40  and  _41
REMARK   16  A    between atoms: _40  and  _43
REMARK   17  A    between atoms: _43  and  _44
REMARK   18  A    between atoms: _54  and  _56
REMARK   19  A    between atoms: _56  and  _57
REMARK   20  A    between atoms: _56  and  _59
REMARK   21  A    between atoms: _59  and  _60
REMARK   22  A    between atoms: _60  and  _61
REMARK   23  A    between atoms: _61  and  _62
REMARK   24  A    between atoms: _62  and  _63
REMARK   25  A    between atoms: _67  and  _69
REMARK   26  A    between atoms: _69  and  _70
REMARK   27  A    between atoms: _69  and  _72
REMARK   28  A    between atoms: _72  and  _73
REMARK   29  A    between atoms: _79  and  _81
REMARK   30  A    between atoms: _81  and  _82
REMARK   31  A    between atoms: _81  and  _84
REMARK   32  A    between atoms: _84  and  _85
REMARK   33  A    between atoms: _87  and  _89
REMARK   34  A    between atoms: _89  and  _90
REMARK   35  A    between atoms: _89  and  _92
REMARK   36  A    between atoms: _92  and  _93
REMARK   37  A    between atoms: _93  and  _94
REMARK   38  A    between atoms: _97  and  _99
REMARK   39  A    between atoms: _99  and  _100
REMARK   40  A    between atoms: _99  and  _102
REMARK   41  A    between atoms: _102  and  _103
REMARK   42  A    between atoms: _106  and  _108
REMARK   43  A    between atoms: _108  and  _109
REMARK   44  A    between atoms: _112  and  _114
REMARK   45  A    between atoms: _114  and  _115
REMARK   46  A    between atoms: _114  and  _117
REMARK   47  A    between atoms: _117  and  _118
REMARK   48  A    between atoms: _121  and  _123
REMARK   49  A    between atoms: _123  and  _124
REMARK   50  A    between atoms: _123  and  _126
REMARK   51  A    between atoms: _127  and  _128
REMARK   52  A    between atoms: _128  and  _129
REMARK   53  A    between atoms: _129  and  _130
REMARK   54  A    between atoms: _134  and  _136
REMARK   55  A    between atoms: _136  and  _137
REMARK   56  A    between atoms: _136  and  _139
REMARK   57  A    between atoms: _141  and  _143
REMARK   58  A    between atoms: _143  and  _144
REMARK   59  A    between atoms: _143  and  _146
REMARK   60  A    between atoms: _146  and  _147
REMARK   61  A    between atoms: _150  and  _152
REMARK   62  A    between atoms: _152  and  _153
REMARK   63  A    between atoms: _152  and  _155
REMARK   64  A    between atoms: _155  and  _156
REMARK   65  A    between atoms: _156  and  _157
REMARK   66  A    between atoms: _157  and  _158
REMARK   67  A    between atoms: _158  and  _159
REMARK   68  A    between atoms: _163  and  _165
REMARK   69  A    between atoms: _165  and  _166
REMARK   70  A    between atoms: _165  and  _168
REMARK   71  A    between atoms: _168  and  _169
REMARK   72  A    between atoms: _172  and  _174
REMARK   73  A    between atoms: _174  and  _175
REMARK   74  A    between atoms: _174  and  _177
REMARK   75  A    between atoms: _179  and  _181
REMARK   76  A    between atoms: _181  and  _182
REMARK   77  A    between atoms: _181  and  _184
REMARK   78  A    between atoms: _184  and  _185
REMARK   79  A    between atoms: _188  and  _190
REMARK   80  A    between atoms: _190  and  _191
REMARK   81  A    between atoms: _190  and  _193
REMARK   82  A    between atoms: _193  and  _194
REMARK   83  A    between atoms: _197  and  _199
REMARK   84  A    between atoms: _199  and  _200
REMARK   85  A    between atoms: _199  and  _202
REMARK   86  A    between atoms: _202  and  _203
REMARK   87  A    between atoms: _206  and  _208
REMARK   88  A    between atoms: _208  and  _209
REMARK   89  A    between atoms: _208  and  _211
REMARK   90  A    between atoms: _211  and  _212
REMARK   91  A    between atoms: _215  and  _217
REMARK   92  A    between atoms: _217  and  _218
REMARK   93  A    between atoms: _217  and  _220
REMARK   94  A    between atoms: _220  and  _221
REMARK   95  A    between atoms: _221  and  _222
REMARK   96  A    between atoms: _224  and  _226
REMARK   97  A    between atoms: _226  and  _227
REMARK   98  A    between atoms: _226  and  _229
REMARK   99  A    between atoms: _229  and  _230
REMARK  100  A    between atoms: _233  and  _235
REMARK  101  A    between atoms: _235  and  _236
REMARK  102  A    between atoms: _235  and  _238
REMARK  103  A    between atoms: _238  and  _239
REMARK  104  A    between atoms: _239  and  _240
REMARK  105  A    between atoms: _240  and  _241
REMARK  106  A    between atoms: _250  and  _252
REMARK  107  A    between atoms: _252  and  _253
REMARK  108  A    between atoms: _252  and  _255
REMARK  109  A    between atoms: _255  and  _256
REMARK  110  A    between atoms: _259  and  _261
REMARK  111  A    between atoms: _261  and  _262
REMARK  112  A    between atoms: _261  and  _264
REMARK  113  A    between atoms: _266  and  _268
REMARK  114  A    between atoms: _268  and  _269
REMARK  115  A    between atoms: _268  and  _271
REMARK  116  A    between atoms: _271  and  _272
REMARK  117  A    between atoms: _275  and  _277
REMARK  118  A    between atoms: _277  and  _278
REMARK  119  A    between atoms: _277  and  _280
REMARK  120  A    between atoms: _280  and  _281
REMARK  121  A    between atoms: _281  and  _282
REMARK  122  A    between atoms: _282  and  _283
REMARK  123  A    between atoms: _292  and  _294
REMARK  124  A    between atoms: _294  and  _295
REMARK  125  A    between atoms: _294  and  _297
REMARK  126  A    between atoms: _297  and  _298
REMARK  127  A    between atoms: _298  and  _299
REMARK  128  A    between atoms: _301  and  _303
REMARK  129  A    between atoms: _303  and  _304
REMARK  130  A    between atoms: _303  and  _306
REMARK  131  A    between atoms: _306  and  _307
REMARK  132  A    between atoms: _310  and  _312
REMARK  133  A    between atoms: _312  and  _313
REMARK  134  A    between atoms: _312  and  _315
REMARK  135  A    between atoms: _315  and  _316
REMARK  136  A    between atoms: _322  and  _324
REMARK  137  A    between atoms: _324  and  _325
REMARK  138  A    between atoms: _324  and  _327
REMARK  139  A    between atoms: _327  and  _328
REMARK  140  A    between atoms: _330  and  _332
REMARK  141  A    between atoms: _332  and  _333
REMARK  142  A    between atoms: _332  and  _335
REMARK  143  A    between atoms: _335  and  _336
REMARK  144  A    between atoms: _339  and  _341
REMARK  145  A    between atoms: _341  and  _342
REMARK  146  A    between atoms: _344  and  _346
REMARK  147  A    between atoms: _346  and  _347
REMARK  148  A    between atoms: _346  and  _349
REMARK  149  A    between atoms: _349  and  _350
REMARK  150  A    between atoms: _353  and  _355
REMARK  151  A    between atoms: _355  and  _356
REMARK  152  A    between atoms: _355  and  _358
REMARK  153  A    between atoms: _358  and  _359
REMARK  154  A    between atoms: _359  and  _360
REMARK  155  A    between atoms: _362  and  _364
REMARK  156  A    between atoms: _364  and  _365
REMARK  157  A    between atoms: _364  and  _367
REMARK  158  A    between atoms: _367  and  _368
REMARK  159  A    between atoms: _373  and  _375
REMARK  160  A    between atoms: _375  and  _376
REMARK  161  A    between atoms: _379  and  _381
REMARK  162  A    between atoms: _381  and  _382
REMARK  163  A    between atoms: _384  and  _386
REMARK  164  A    between atoms: _386  and  _387
REMARK  165  A    between atoms: _386  and  _389
REMARK  166  A    between atoms: _389  and  _390
REMARK  167  A    between atoms: _396  and  _398
REMARK  168  A    between atoms: _398  and  _399
REMARK  169  A    between atoms: _401  and  _403
REMARK  170  A    between atoms: _403  and  _404
REMARK  171  A    between atoms: _403  and  _406
REMARK  172  A    between atoms: _406  and  _407
REMARK  173  A    between atoms: _410  and  _412
REMARK  174  A    between atoms: _412  and  _413
REMARK  175  A    between atoms: _412  and  _415
REMARK  176  A    between atoms: _415  and  _416
REMARK  177  A    between atoms: _419  and  _421
REMARK  178  A    between atoms: _421  and  _422
REMARK  179  A    between atoms: _421  and  _424
REMARK  180  A    between atoms: _427  and  _429
REMARK  181  A    between atoms: _429  and  _430
REMARK  182  A    between atoms: _429  and  _432
REMARK  183  A    between atoms: _432  and  _433
REMARK  184  A    between atoms: _436  and  _438
REMARK  185  A    between atoms: _438  and  _439
REMARK  186  A    between atoms: _438  and  _441
REMARK  187  A    between atoms: _441  and  _442
REMARK  188  A    between atoms: _444  and  _446
REMARK  189  A    between atoms: _446  and  _447
REMARK  190  A    between atoms: _446  and  _449
REMARK  191  A    between atoms: _449  and  _450
REMARK  192  A    between atoms: _450  and  _451
REMARK  193  A    between atoms: _451  and  _452
REMARK  194  A    between atoms: _452  and  _453
REMARK  195  A    between atoms: _457  and  _459
REMARK  196  A    between atoms: _459  and  _460
REMARK  197  A    between atoms: _462  and  _464
REMARK  198  A    between atoms: _464  and  _465
REMARK  199  A    between atoms: _468  and  _470
REMARK  200  A    between atoms: _470  and  _471
REMARK  201  A    between atoms: _470  and  _473
REMARK  202  A    between atoms: _474  and  _475
REMARK  203  A    between atoms: _478  and  _480
REMARK  204  A    between atoms: _480  and  _481
REMARK  205  A    between atoms: _480  and  _483
REMARK  206  A    between atoms: _483  and  _484
REMARK  207  A    between atoms: _484  and  _485
REMARK  208  A    between atoms: _485  and  _486
REMARK  209  A    between atoms: _495  and  _497
REMARK  210  A    between atoms: _497  and  _498
REMARK  211  A    between atoms: _501  and  _503
REMARK  212  A    between atoms: _503  and  _504
REMARK  213  A    between atoms: _503  and  _506
REMARK  214  A    between atoms: _506  and  _507
REMARK  215  A    between atoms: _510  and  _512
REMARK  216  A    between atoms: _512  and  _513
REMARK  217  A    between atoms: _512  and  _515
REMARK  218  A    between atoms: _515  and  _516
REMARK  219  A    between atoms: _519  and  _521
REMARK  220  A    between atoms: _521  and  _522
REMARK  221  A    between atoms: _521  and  _524
REMARK  222  A    between atoms: _524  and  _525
REMARK  223  A    between atoms: _528  and  _530
REMARK  224  A    between atoms: _530  and  _531
REMARK  225  A    between atoms: _530  and  _533
REMARK  226  A    between atoms: _533  and  _534
REMARK  227  A    between atoms: _534  and  _535
REMARK  228  A    between atoms: _535  and  _536
REMARK  229  A    between atoms: _536  and  _537
REMARK  230  A    between atoms: _541  and  _543
REMARK  231  A    between atoms: _543  and  _544
REMARK  232  A    between atoms: _543  and  _546
REMARK  233  A    between atoms: _546  and  _547
REMARK  234  A    between atoms: _550  and  _552
REMARK  235  A    between atoms: _552  and  _553
REMARK  236  A    between atoms: _552  and  _555
REMARK  237  A    between atoms: _555  and  _556
REMARK  238  A    between atoms: _556  and  _557
REMARK  239  A    between atoms: _560  and  _561
REMARK  240  A    between atoms: _566  and  _568
REMARK  241  A    between atoms: _568  and  _569
REMARK  242  A    between atoms: _568  and  _571
REMARK  243  A    between atoms: _571  and  _572
REMARK  244  A    between atoms: _575  and  _577
REMARK  245  A    between atoms: _577  and  _578
REMARK  246  A    between atoms: _577  and  _580
REMARK  247  A    between atoms: _580  and  _581
REMARK  248  A    between atoms: _581  and  _582
REMARK  249  A    between atoms: _582  and  _583
REMARK  250  A    between atoms: _592  and  _594
REMARK  251  A    between atoms: _594  and  _595
REMARK  252  A    between atoms: _594  and  _597
REMARK  253  A    between atoms: _597  and  _598
REMARK  254  A    between atoms: _598  and  _599
REMARK  255  A    between atoms: _601  and  _603
REMARK  256  A    between atoms: _603  and  _604
REMARK  257  A    between atoms: _603  and  _606
REMARK  258  A    between atoms: _606  and  _607
REMARK                            x       y       z     vdW  Elec       q    Type
REMARK                         _______ _______ _______ _____ _____    ______ ____
ROOT
ATOM      1  O   HOH     1      48.893   8.760  86.629  0.00  0.00    +0.000 OA
ENDROOT
TORSDOF 0
REMARK  Name = ../refined-set-2016/1fcy/1fcy_pocket.pdb
REMARK  258 active torsions:
REMARK  status: ('A' for Active; 'I' for Inactive)
REMARK    1  A    between atoms: _1  and  _3
REMARK    2  A    between atoms: _3  and  _4
REMARK    3  A    between atoms: _3  and  _6
REMARK    4  A    between atoms: _6  and  _7
REMARK    5  A    between atoms: _10  and  _12
REMARK    6  A    between atoms: _12  and  _13
REMARK    7  A    between atoms: _12  and  _15
REMARK    8  A    between atoms: _15  and  _16
REMARK    9  A    between atoms: _23  and  _24
REMARK   10  A    between atoms: _29  and  _31
REMARK   11  A    between atoms: _31  and  _32
REMARK   12  A    between atoms: _31  and  _34
REMARK   13  A    between atoms: _34  and  _35
REMARK   14  A    between atoms: _38  and  _40
REMARK   15  A    between atoms: _40  and  _41
REMARK   16  A    between atoms: _40  and  _43
REMARK   17  A    between atoms: _43  and  _44
REMARK   18  A    between atoms: _54  and  _56
REMARK   19  A    between atoms: _56  and  _57
REMARK   20  A    between atoms: _56  and  _59
REMARK   21  A    between atoms: _59  and  _60
REMARK   22  A    between atoms: _60  and  _61
REMARK   23  A    between atoms: _61  and  _62
REMARK   24  A    between atoms: _62  and  _63
REMARK   25  A    between atoms: _67  and  _69
REMARK   26  A    between atoms: _69  and  _70
REMARK   27  A    between atoms: _69  and  _72
REMARK   28  A    between atoms: _72  and  _73
REMARK   29  A    between atoms: _79  and  _81
REMARK   30  A    between atoms: _81  and  _82
REMARK   31  A    between atoms: _81  and  _84
REMARK   32  A    between atoms: _84  and  _85
REMARK   33  A    between atoms: _87  and  _89
REMARK   34  A    between atoms: _89  and  _90
REMARK   35  A    between atoms: _89  and  _92
REMARK   36  A    between atoms: _92  and  _93
REMARK   37  A    between atoms: _93  and  _94
REMARK   38  A    between atoms: _97  and  _99
REMARK   39  A    between atoms: _99  and  _100
REMARK   40  A    between atoms: _99  and  _102
REMARK   41  A    between atoms: _102  and  _103
REMARK   42  A    between atoms: _106  and  _108
REMARK   43  A    between atoms: _108  and  _109
REMARK   44  A    between atoms: _112  and  _114
REMARK   45  A    between atoms: _114  and  _115
REMARK   46  A    between atoms: _114  and  _117
REMARK   47  A    between atoms: _117  and  _118
REMARK   48  A    between atoms: _121  and  _123
REMARK   49  A    between atoms: _123  and  _124
REMARK   50  A    between atoms: _123  and  _126
REMARK   51  A    between atoms: _127  and  _128
REMARK   52  A    between atoms: _128  and  _129
REMARK   53  A    between atoms: _129  and  _130
REMARK   54  A    between atoms: _134  and  _136
REMARK   55  A    between atoms: _136  and  _137
REMARK   56  A    between atoms: _136  and  _139
REMARK   57  A    between atoms: _141  and  _143
REMARK   58  A    between atoms: _143  and  _144
REMARK   59  A    between atoms: _143  and  _146
REMARK   60  A    between atoms: _146  and  _147
REMARK   61  A    between atoms: _150  and  _152
REMARK   62  A    between atoms: _152  and  _153
REMARK   63  A    between atoms: _152  and  _155
REMARK   64  A    between atoms: _155  and  _156
REMARK   65  A    between atoms: _156  and  _157
REMARK   66  A    between atoms: _157  and  _158
REMARK   67  A    between atoms: _158  and  _159
REMARK   68  A    between atoms: _163  and  _165
REMARK   69  A    between atoms: _165  and  _166
REMARK   70  A    between atoms: _165  and  _168
REMARK   71  A    between atoms: _168  and  _169
REMARK   72  A    between atoms: _172  and  _174
REMARK   73  A    between atoms: _174  and  _175
REMARK   74  A    between atoms: _174  and  _177
REMARK   75  A    between atoms: _179  and  _181
REMARK   76  A    between atoms: _181  and  _182
REMARK   77  A    between atoms: _181  and  _184
REMARK   78  A    between atoms: _184  and  _185
REMARK   79  A    between atoms: _188  and  _190
REMARK   80  A    between atoms: _190  and  _191
REMARK   81  A    between atoms: _190  and  _193
REMARK   82  A    between atoms: _193  and  _194
REMARK   83  A    between atoms: _197  and  _199
REMARK   84  A    between atoms: _199  and  _200
REMARK   85  A    between atoms: _199  and  _202
REMARK   86  A    between atoms: _202  and  _203
REMARK   87  A    between atoms: _206  and  _208
REMARK   88  A    between atoms: _208  and  _209
REMARK   89  A    between atoms: _208  and  _211
REMARK   90  A    between atoms: _211  and  _212
REMARK   91  A    between atoms: _215  and  _217
REMARK   92  A    between atoms: _217  and  _218
REMARK   93  A    between atoms: _217  and  _220
REMARK   94  A    between atoms: _220  and  _221
REMARK   95  A    between atoms: _221  and  _222
REMARK   96  A    between atoms: _224  and  _226
REMARK   97  A    between atoms: _226  and  _227
REMARK   98  A    between atoms: _226  and  _229
REMARK   99  A    between atoms: _229  and  _230
REMARK  100  A    between atoms: _233  and  _235
REMARK  101  A    between atoms: _235  and  _236
REMARK  102  A    between atoms: _235  and  _238
REMARK  103  A    between atoms: _238  and  _239
REMARK  104  A    between atoms: _239  and  _240
REMARK  105  A    between atoms: _240  and  _241
REMARK  106  A    between atoms: _250  and  _252
REMARK  107  A    between atoms: _252  and  _253
REMARK  108  A    between atoms: _252  and  _255
REMARK  109  A    between atoms: _255  and  _256
REMARK  110  A    between atoms: _259  and  _261
REMARK  111  A    between atoms: _261  and  _262
REMARK  112  A    between atoms: _261  and  _264
REMARK  113  A    between atoms: _266  and  _268
REMARK  114  A    between atoms: _268  and  _269
REMARK  115  A    between atoms: _268  and  _271
REMARK  116  A    between atoms: _271  and  _272
REMARK  117  A    between atoms: _275  and  _277
REMARK  118  A    between atoms: _277  and  _278
REMARK  119  A    between atoms: _277  and  _280
REMARK  120  A    between atoms: _280  and  _281
REMARK  121  A    between atoms: _281  and  _282
REMARK  122  A    between atoms: _282  and  _283
REMARK  123  A    between atoms: _292  and  _294
REMARK  124  A    between atoms: _294  and  _295
REMARK  125  A    between atoms: _294  and  _297
REMARK  126  A    between atoms: _297  and  _298
REMARK  127  A    between atoms: _298  and  _299
REMARK  128  A    between atoms: _301  and  _303
REMARK  129  A    between atoms: _303  and  _304
REMARK  130  A    between atoms: _303  and  _306
REMARK  131  A    between atoms: _306  and  _307
REMARK  132  A    between atoms: _310  and  _312
REMARK  133  A    between atoms: _312  and  _313
REMARK  134  A    between atoms: _312  and  _315
REMARK  135  A    between atoms: _315  and  _316
REMARK  136  A    between atoms: _322  and  _324
REMARK  137  A    between atoms: _324  and  _325
REMARK  138  A    between atoms: _324  and  _327
REMARK  139  A    between atoms: _327  and  _328
REMARK  140  A    between atoms: _330  and  _332
REMARK  141  A    between atoms: _332  and  _333
REMARK  142  A    between atoms: _332  and  _335
REMARK  143  A    between atoms: _335  and  _336
REMARK  144  A    between atoms: _339  and  _341
REMARK  145  A    between atoms: _341  and  _342
REMARK  146  A    between atoms: _344  and  _346
REMARK  147  A    between atoms: _346  and  _347
REMARK  148  A    between atoms: _346  and  _349
REMARK  149  A    between atoms: _349  and  _350
REMARK  150  A    between atoms: _353  and  _355
REMARK  151  A    between atoms: _355  and  _356
REMARK  152  A    between atoms: _355  and  _358
REMARK  153  A    between atoms: _358  and  _359
REMARK  154  A    between atoms: _359  and  _360
REMARK  155  A    between atoms: _362  and  _364
REMARK  156  A    between atoms: _364  and  _365
REMARK  157  A    between atoms: _364  and  _367
REMARK  158  A    between atoms: _367  and  _368
REMARK  159  A    between atoms: _373  and  _375
REMARK  160  A    between atoms: _375  and  _376
REMARK  161  A    between atoms: _379  and  _381
REMARK  162  A    between atoms: _381  and  _382
REMARK  163  A    between atoms: _384  and  _386
REMARK  164  A    between atoms: _386  and  _387
REMARK  165  A    between atoms: _386  and  _389
REMARK  166  A    between atoms: _389  and  _390
REMARK  167  A    between atoms: _396  and  _398
REMARK  168  A    between atoms: _398  and  _399
REMARK  169  A    between atoms: _401  and  _403
REMARK  170  A    between atoms: _403  and  _404
REMARK  171  A    between atoms: _403  and  _406
REMARK  172  A    between atoms: _406  and  _407
REMARK  173  A    between atoms: _410  and  _412
REMARK  174  A    between atoms: _412  and  _413
REMARK  175  A    between atoms: _412  and  _415
REMARK  176  A    between atoms: _415  and  _416
REMARK  177  A    between atoms: _419  and  _421
REMARK  178  A    between atoms: _421  and  _422
REMARK  179  A    between atoms: _421  and  _424
REMARK  180  A    between atoms: _427  and  _429
REMARK  181  A    between atoms: _429  and  _430
REMARK  182  A    between atoms: _429  and  _432
REMARK  183  A    between atoms: _432  and  _433
REMARK  184  A    between atoms: _436  and  _438
REMARK  185  A    between atoms: _438  and  _439
REMARK  186  A    between atoms: _438  and  _441
REMARK  187  A    between atoms: _441  and  _442
REMARK  188  A    between atoms: _444  and  _446
REMARK  189  A    between atoms: _446  and  _447
REMARK  190  A    between atoms: _446  and  _449
REMARK  191  A    between atoms: _449  and  _450
REMARK  192  A    between atoms: _450  and  _451
REMARK  193  A    between atoms: _451  and  _452
REMARK  194  A    between atoms: _452  and  _453
REMARK  195  A    between atoms: _457  and  _459
REMARK  196  A    between atoms: _459  and  _460
REMARK  197  A    between atoms: _462  and  _464
REMARK  198  A    between atoms: _464  and  _465
REMARK  199  A    between atoms: _468  and  _470
REMARK  200  A    between atoms: _470  and  _471
REMARK  201  A    between atoms: _470  and  _473
REMARK  202  A    between atoms: _474  and  _475
REMARK  203  A    between atoms: _478  and  _480
REMARK  204  A    between atoms: _480  and  _481
REMARK  205  A    between atoms: _480  and  _483
REMARK  206  A    between atoms: _483  and  _484
REMARK  207  A    between atoms: _484  and  _485
REMARK  208  A    between atoms: _485  and  _486
REMARK  209  A    between atoms: _495  and  _497
REMARK  210  A    between atoms: _497  and  _498
REMARK  211  A    between atoms: _501  and  _503
REMARK  212  A    between atoms: _503  and  _504
REMARK  213  A    between atoms: _503  and  _506
REMARK  214  A    between atoms: _506  and  _507
REMARK  215  A    between atoms: _510  and  _512
REMARK  216  A    between atoms: _512  and  _513
REMARK  217  A    between atoms: _512  and  _515
REMARK  218  A    between atoms: _515  and  _516
REMARK  219  A    between atoms: _519  and  _521
REMARK  220  A    between atoms: _521  and  _522
REMARK  221  A    between atoms: _521  and  _524
REMARK  222  A    between atoms: _524  and  _525
REMARK  223  A    between atoms: _528  and  _530
REMARK  224  A    between atoms: _530  and  _531
REMARK  225  A    between atoms: _530  and  _533
REMARK  226  A    between atoms: _533  and  _534
REMARK  227  A    between atoms: _534  and  _535
REMARK  228  A    between atoms: _535  and  _536
REMARK  229  A    between atoms: _536  and  _537
REMARK  230  A    between atoms: _541  and  _543
REMARK  231  A    between atoms: _543  and  _544
REMARK  232  A    between atoms: _543  and  _546
REMARK  233  A    between atoms: _546  and  _547
REMARK  234  A    between atoms: _550  and  _552
REMARK  235  A    between atoms: _552  and  _553
REMARK  236  A    between atoms: _552  and  _555
REMARK  237  A    between atoms: _555  and  _556
REMARK  238  A    between atoms: _556  and  _557
REMARK  239  A    between atoms: _560  and  _561
REMARK  240  A    between atoms: _566  and  _568
REMARK  241  A    between atoms: _568  and  _569
REMARK  242  A    between atoms: _568  and  _571
REMARK  243  A    between atoms: _571  and  _572
REMARK  244  A    between atoms: _575  and  _577
REMARK  245  A    between atoms: _577  and  _578
REMARK  246  A    between atoms: _577  and  _580
REMARK  247  A    between atoms: _580  and  _581
REMARK  248  A    between atoms: _581  and  _582
REMARK  249  A    between atoms: _582  and  _583
REMARK  250  A    between atoms: _592  and  _594
REMARK  251  A    between atoms: _594  and  _595
REMARK  252  A    between atoms: _594  and  _597
REMARK  253  A    between atoms: _597  and  _598
REMARK  254  A    between atoms: _598  and  _599
REMARK  255  A    between atoms: _601  and  _603
REMARK  256  A    between atoms: _603  and  _604
REMARK  257  A    between atoms: _603  and  _606
REMARK  258  A    between atoms: _606  and  _607
REMARK                            x       y       z     vdW  Elec       q    Type
REMARK                         _______ _______ _______ _____ _____    ______ ____
ROOT
ATOM      1  O   HOH     1      45.337   6.970  75.052  0.00  0.00    +0.000 OA
ENDROOT
TORSDOF 0
REMARK  Name = ../refined-set-2016/1fcy/1fcy_pocket.pdb
REMARK  258 active torsions:
REMARK  status: ('A' for Active; 'I' for Inactive)
REMARK    1  A    between atoms: _1  and  _3
REMARK    2  A    between atoms: _3  and  _4
REMARK    3  A    between atoms: _3  and  _6
REMARK    4  A    between atoms: _6  and  _7
REMARK    5  A    between atoms: _10  and  _12
REMARK    6  A    between atoms: _12  and  _13
REMARK    7  A    between atoms: _12  and  _15
REMARK    8  A    between atoms: _15  and  _16
REMARK    9  A    between atoms: _23  and  _24
REMARK   10  A    between atoms: _29  and  _31
REMARK   11  A    between atoms: _31  and  _32
REMARK   12  A    between atoms: _31  and  _34
REMARK   13  A    between atoms: _34  and  _35
REMARK   14  A    between atoms: _38  and  _40
REMARK   15  A    between atoms: _40  and  _41
REMARK   16  A    between atoms: _40  and  _43
REMARK   17  A    between atoms: _43  and  _44
REMARK   18  A    between atoms: _54  and  _56
REMARK   19  A    between atoms: _56  and  _57
REMARK   20  A    between atoms: _56  and  _59
REMARK   21  A    between atoms: _59  and  _60
REMARK   22  A    between atoms: _60  and  _61
REMARK   23  A    between atoms: _61  and  _62
REMARK   24  A    between atoms: _62  and  _63
REMARK   25  A    between atoms: _67  and  _69
REMARK   26  A    between atoms: _69  and  _70
REMARK   27  A    between atoms: _69  and  _72
REMARK   28  A    between atoms: _72  and  _73
REMARK   29  A    between atoms: _79  and  _81
REMARK   30  A    between atoms: _81  and  _82
REMARK   31  A    between atoms: _81  and  _84
REMARK   32  A    between atoms: _84  and  _85
REMARK   33  A    between atoms: _87  and  _89
REMARK   34  A    between atoms: _89  and  _90
REMARK   35  A    between atoms: _89  and  _92
REMARK   36  A    between atoms: _92  and  _93
REMARK   37  A    between atoms: _93  and  _94
REMARK   38  A    between atoms: _97  and  _99
REMARK   39  A    between atoms: _99  and  _100
REMARK   40  A    between atoms: _99  and  _102
REMARK   41  A    between atoms: _102  and  _103
REMARK   42  A    between atoms: _106  and  _108
REMARK   43  A    between atoms: _108  and  _109
REMARK   44  A    between atoms: _112  and  _114
REMARK   45  A    between atoms: _114  and  _115
REMARK   46  A    between atoms: _114  and  _117
REMARK   47  A    between atoms: _117  and  _118
REMARK   48  A    between atoms: _121  and  _123
REMARK   49  A    between atoms: _123  and  _124
REMARK   50  A    between atoms: _123  and  _126
REMARK   51  A    between atoms: _127  and  _128
REMARK   52  A    between atoms: _128  and  _129
REMARK   53  A    between atoms: _129  and  _130
REMARK   54  A    between atoms: _134  and  _136
REMARK   55  A    between atoms: _136  and  _137
REMARK   56  A    between atoms: _136  and  _139
REMARK   57  A    between atoms: _141  and  _143
REMARK   58  A    between atoms: _143  and  _144
REMARK   59  A    between atoms: _143  and  _146
REMARK   60  A    between atoms: _146  and  _147
REMARK   61  A    between atoms: _150  and  _152
REMARK   62  A    between atoms: _152  and  _153
REMARK   63  A    between atoms: _152  and  _155
REMARK   64  A    between atoms: _155  and  _156
REMARK   65  A    between atoms: _156  and  _157
REMARK   66  A    between atoms: _157  and  _158
REMARK   67  A    between atoms: _158  and  _159
REMARK   68  A    between atoms: _163  and  _165
REMARK   69  A    between atoms: _165  and  _166
REMARK   70  A    between atoms: _165  and  _168
REMARK   71  A    between atoms: _168  and  _169
REMARK   72  A    between atoms: _172  and  _174
REMARK   73  A    between atoms: _174  and  _175
REMARK   74  A    between atoms: _174  and  _177
REMARK   75  A    between atoms: _179  and  _181
REMARK   76  A    between atoms: _181  and  _182
REMARK   77  A    between atoms: _181  and  _184
REMARK   78  A    between atoms: _184  and  _185
REMARK   79  A    between atoms: _188  and  _190
REMARK   80  A    between atoms: _190  and  _191
REMARK   81  A    between atoms: _190  and  _193
REMARK   82  A    between atoms: _193  and  _194
REMARK   83  A    between atoms: _197  and  _199
REMARK   84  A    between atoms: _199  and  _200
REMARK   85  A    between atoms: _199  and  _202
REMARK   86  A    between atoms: _202  and  _203
REMARK   87  A    between atoms: _206  and  _208
REMARK   88  A    between atoms: _208  and  _209
REMARK   89  A    between atoms: _208  and  _211
REMARK   90  A    between atoms: _211  and  _212
REMARK   91  A    between atoms: _215  and  _217
REMARK   92  A    between atoms: _217  and  _218
REMARK   93  A    between atoms: _217  and  _220
REMARK   94  A    between atoms: _220  and  _221
REMARK   95  A    between atoms: _221  and  _222
REMARK   96  A    between atoms: _224  and  _226
REMARK   97  A    between atoms: _226  and  _227
REMARK   98  A    between atoms: _226  and  _229
REMARK   99  A    between atoms: _229  and  _230
REMARK  100  A    between atoms: _233  and  _235
REMARK  101  A    between atoms: _235  and  _236
REMARK  102  A    between atoms: _235  and  _238
REMARK  103  A    between atoms: _238  and  _239
REMARK  104  A    between atoms: _239  and  _240
REMARK  105  A    between atoms: _240  and  _241
REMARK  106  A    between atoms: _250  and  _252
REMARK  107  A    between atoms: _252  and  _253
REMARK  108  A    between atoms: _252  and  _255
REMARK  109  A    between atoms: _255  and  _256
REMARK  110  A    between atoms: _259  and  _261
REMARK  111  A    between atoms: _261  and  _262
REMARK  112  A    between atoms: _261  and  _264
REMARK  113  A    between atoms: _266  and  _268
REMARK  114  A    between atoms: _268  and  _269
REMARK  115  A    between atoms: _268  and  _271
REMARK  116  A    between atoms: _271  and  _272
REMARK  117  A    between atoms: _275  and  _277
REMARK  118  A    between atoms: _277  and  _278
REMARK  119  A    between atoms: _277  and  _280
REMARK  120  A    between atoms: _280  and  _281
REMARK  121  A    between atoms: _281  and  _282
REMARK  122  A    between atoms: _282  and  _283
REMARK  123  A    between atoms: _292  and  _294
REMARK  124  A    between atoms: _294  and  _295
REMARK  125  A    between atoms: _294  and  _297
REMARK  126  A    between atoms: _297  and  _298
REMARK  127  A    between atoms: _298  and  _299
REMARK  128  A    between atoms: _301  and  _303
REMARK  129  A    between atoms: _303  and  _304
REMARK  130  A    between atoms: _303  and  _306
REMARK  131  A    between atoms: _306  and  _307
REMARK  132  A    between atoms: _310  and  _312
REMARK  133  A    between atoms: _312  and  _313
REMARK  134  A    between atoms: _312  and  _315
REMARK  135  A    between atoms: _315  and  _316
REMARK  136  A    between atoms: _322  and  _324
REMARK  137  A    between atoms: _324  and  _325
REMARK  138  A    between atoms: _324  and  _327
REMARK  139  A    between atoms: _327  and  _328
REMARK  140  A    between atoms: _330  and  _332
REMARK  141  A    between atoms: _332  and  _333
REMARK  142  A    between atoms: _332  and  _335
REMARK  143  A    between atoms: _335  and  _336
REMARK  144  A    between atoms: _339  and  _341
REMARK  145  A    between atoms: _341  and  _342
REMARK  146  A    between atoms: _344  and  _346
REMARK  147  A    between atoms: _346  and  _347
REMARK  148  A    between atoms: _346  and  _349
REMARK  149  A    between atoms: _349  and  _350
REMARK  150  A    between atoms: _353  and  _355
REMARK  151  A    between atoms: _355  and  _356
REMARK  152  A    between atoms: _355  and  _358
REMARK  153  A    between atoms: _358  and  _359
REMARK  154  A    between atoms: _359  and  _360
REMARK  155  A    between atoms: _362  and  _364
REMARK  156  A    between atoms: _364  and  _365
REMARK  157  A    between atoms: _364  and  _367
REMARK  158  A    between atoms: _367  and  _368
REMARK  159  A    between atoms: _373  and  _375
REMARK  160  A    between atoms: _375  and  _376
REMARK  161  A    between atoms: _379  and  _381
REMARK  162  A    between atoms: _381  and  _382
REMARK  163  A    between atoms: _384  and  _386
REMARK  164  A    between atoms: _386  and  _387
REMARK  165  A    between atoms: _386  and  _389
REMARK  166  A    between atoms: _389  and  _390
REMARK  167  A    between atoms: _396  and  _398
REMARK  168  A    between atoms: _398  and  _399
REMARK  169  A    between atoms: _401  and  _403
REMARK  170  A    between atoms: _403  and  _404
REMARK  171  A    between atoms: _403  and  _406
REMARK  172  A    between atoms: _406  and  _407
REMARK  173  A    between atoms: _410  and  _412
REMARK  174  A    between atoms: _412  and  _413
REMARK  175  A    between atoms: _412  and  _415
REMARK  176  A    between atoms: _415  and  _416
REMARK  177  A    between atoms: _419  and  _421
REMARK  178  A    between atoms: _421  and  _422
REMARK  179  A    between atoms: _421  and  _424
REMARK  180  A    between atoms: _427  and  _429
REMARK  181  A    between atoms: _429  and  _430
REMARK  182  A    between atoms: _429  and  _432
REMARK  183  A    between atoms: _432  and  _433
REMARK  184  A    between atoms: _436  and  _438
REMARK  185  A    between atoms: _438  and  _439
REMARK  186  A    between atoms: _438  and  _441
REMARK  187  A    between atoms: _441  and  _442
REMARK  188  A    between atoms: _444  and  _446
REMARK  189  A    between atoms: _446  and  _447
REMARK  190  A    between atoms: _446  and  _449
REMARK  191  A    between atoms: _449  and  _450
REMARK  192  A    between atoms: _450  and  _451
REMARK  193  A    between atoms: _451  and  _452
REMARK  194  A    between atoms: _452  and  _453
REMARK  195  A    between atoms: _457  and  _459
REMARK  196  A    between atoms: _459  and  _460
REMARK  197  A    between atoms: _462  and  _464
REMARK  198  A    between atoms: _464  and  _465
REMARK  199  A    between atoms: _468  and  _470
REMARK  200  A    between atoms: _470  and  _471
REMARK  201  A    between atoms: _470  and  _473
REMARK  202  A    between atoms: _474  and  _475
REMARK  203  A    between atoms: _478  and  _480
REMARK  204  A    between atoms: _480  and  _481
REMARK  205  A    between atoms: _480  and  _483
REMARK  206  A    between atoms: _483  and  _484
REMARK  207  A    between atoms: _484  and  _485
REMARK  208  A    between atoms: _485  and  _486
REMARK  209  A    between atoms: _495  and  _497
REMARK  210  A    between atoms: _497  and  _498
REMARK  211  A    between atoms: _501  and  _503
REMARK  212  A    between atoms: _503  and  _504
REMARK  213  A    between atoms: _503  and  _506
REMARK  214  A    between atoms: _506  and  _507
REMARK  215  A    between atoms: _510  and  _512
REMARK  216  A    between atoms: _512  and  _513
REMARK  217  A    between atoms: _512  and  _515
REMARK  218  A    between atoms: _515  and  _516
REMARK  219  A    between atoms: _519  and  _521
REMARK  220  A    between atoms: _521  and  _522
REMARK  221  A    between atoms: _521  and  _524
REMARK  222  A    between atoms: _524  and  _525
REMARK  223  A    between atoms: _528  and  _530
REMARK  224  A    between atoms: _530  and  _531
REMARK  225  A    between atoms: _530  and  _533
REMARK  226  A    between atoms: _533  and  _534
REMARK  227  A    between atoms: _534  and  _535
REMARK  228  A    between atoms: _535  and  _536
REMARK  229  A    between atoms: _536  and  _537
REMARK  230  A    between atoms: _541  and  _543
REMARK  231  A    between atoms: _543  and  _544
REMARK  232  A    between atoms: _543  and  _546
REMARK  233  A    between atoms: _546  and  _547
REMARK  234  A    between atoms: _550  and  _552
REMARK  235  A    between atoms: _552  and  _553
REMARK  236  A    between atoms: _552  and  _555
REMARK  237  A    between atoms: _555  and  _556
REMARK  238  A    between atoms: _556  and  _557
REMARK  239  A    between atoms: _560  and  _561
REMARK  240  A    between atoms: _566  and  _568
REMARK  241  A    between atoms: _568  and  _569
REMARK  242  A    between atoms: _568  and  _571
REMARK  243  A    between atoms: _571  and  _572
REMARK  244  A    between atoms: _575  and  _577
REMARK  245  A    between atoms: _577  and  _578
REMARK  246  A    between atoms: _577  and  _580
REMARK  247  A    between atoms: _580  and  _581
REMARK  248  A    between atoms: _581  and  _582
REMARK  249  A    between atoms: _582  and  _583
REMARK  250  A    between atoms: _592  and  _594
REMARK  251  A    between atoms: _594  and  _595
REMARK  252  A    between atoms: _594  and  _597
REMARK  253  A    between atoms: _597  and  _598
REMARK  254  A    between atoms: _598  and  _599
REMARK  255  A    between atoms: _601  and  _603
REMARK  256  A    between atoms: _603  and  _604
REMARK  257  A    between atoms: _603  and  _606
REMARK  258  A    between atoms: _606  and  _607
REMARK                            x       y       z     vdW  Elec       q    Type
REMARK                         _______ _______ _______ _____ _____    ______ ____
ROOT
ATOM      1  O   HOH     1      28.820  12.896  92.095  0.00  0.00    +0.000 OA
ENDROOT
TORSDOF 0
REMARK  Name = ../refined-set-2016/1fcy/1fcy_pocket.pdb
REMARK  258 active torsions:
REMARK  status: ('A' for Active; 'I' for Inactive)
REMARK    1  A    between atoms: _1  and  _3
REMARK    2  A    between atoms: _3  and  _4
REMARK    3  A    between atoms: _3  and  _6
REMARK    4  A    between atoms: _6  and  _7
REMARK    5  A    between atoms: _10  and  _12
REMARK    6  A    between atoms: _12  and  _13
REMARK    7  A    between atoms: _12  and  _15
REMARK    8  A    between atoms: _15  and  _16
REMARK    9  A    between atoms: _23  and  _24
REMARK   10  A    between atoms: _29  and  _31
REMARK   11  A    between atoms: _31  and  _32
REMARK   12  A    between atoms: _31  and  _34
REMARK   13  A    between atoms: _34  and  _35
REMARK   14  A    between atoms: _38  and  _40
REMARK   15  A    between atoms: _40  and  _41
REMARK   16  A    between atoms: _40  and  _43
REMARK   17  A    between atoms: _43  and  _44
REMARK   18  A    between atoms: _54  and  _56
REMARK   19  A    between atoms: _56  and  _57
REMARK   20  A    between atoms: _56  and  _59
REMARK   21  A    between atoms: _59  and  _60
REMARK   22  A    between atoms: _60  and  _61
REMARK   23  A    between atoms: _61  and  _62
REMARK   24  A    between atoms: _62  and  _63
REMARK   25  A    between atoms: _67  and  _69
REMARK   26  A    between atoms: _69  and  _70
REMARK   27  A    between atoms: _69  and  _72
REMARK   28  A    between atoms: _72  and  _73
REMARK   29  A    between atoms: _79  and  _81
REMARK   30  A    between atoms: _81  and  _82
REMARK   31  A    between atoms: _81  and  _84
REMARK   32  A    between atoms: _84  and  _85
REMARK   33  A    between atoms: _87  and  _89
REMARK   34  A    between atoms: _89  and  _90
REMARK   35  A    between atoms: _89  and  _92
REMARK   36  A    between atoms: _92  and  _93
REMARK   37  A    between atoms: _93  and  _94
REMARK   38  A    between atoms: _97  and  _99
REMARK   39  A    between atoms: _99  and  _100
REMARK   40  A    between atoms: _99  and  _102
REMARK   41  A    between atoms: _102  and  _103
REMARK   42  A    between atoms: _106  and  _108
REMARK   43  A    between atoms: _108  and  _109
REMARK   44  A    between atoms: _112  and  _114
REMARK   45  A    between atoms: _114  and  _115
REMARK   46  A    between atoms: _114  and  _117
REMARK   47  A    between atoms: _117  and  _118
REMARK   48  A    between atoms: _121  and  _123
REMARK   49  A    between atoms: _123  and  _124
REMARK   50  A    between atoms: _123  and  _126
REMARK   51  A    between atoms: _127  and  _128
REMARK   52  A    between atoms: _128  and  _129
REMARK   53  A    between atoms: _129  and  _130
REMARK   54  A    between atoms: _134  and  _136
REMARK   55  A    between atoms: _136  and  _137
REMARK   56  A    between atoms: _136  and  _139
REMARK   57  A    between atoms: _141  and  _143
REMARK   58  A    between atoms: _143  and  _144
REMARK   59  A    between atoms: _143  and  _146
REMARK   60  A    between atoms: _146  and  _147
REMARK   61  A    between atoms: _150  and  _152
REMARK   62  A    between atoms: _152  and  _153
REMARK   63  A    between atoms: _152  and  _155
REMARK   64  A    between atoms: _155  and  _156
REMARK   65  A    between atoms: _156  and  _157
REMARK   66  A    between atoms: _157  and  _158
REMARK   67  A    between atoms: _158  and  _159
REMARK   68  A    between atoms: _163  and  _165
REMARK   69  A    between atoms: _165  and  _166
REMARK   70  A    between atoms: _165  and  _168
REMARK   71  A    between atoms: _168  and  _169
REMARK   72  A    between atoms: _172  and  _174
REMARK   73  A    between atoms: _174  and  _175
REMARK   74  A    between atoms: _174  and  _177
REMARK   75  A    between atoms: _179  and  _181
REMARK   76  A    between atoms: _181  and  _182
REMARK   77  A    between atoms: _181  and  _184
REMARK   78  A    between atoms: _184  and  _185
REMARK   79  A    between atoms: _188  and  _190
REMARK   80  A    between atoms: _190  and  _191
REMARK   81  A    between atoms: _190  and  _193
REMARK   82  A    between atoms: _193  and  _194
REMARK   83  A    between atoms: _197  and  _199
REMARK   84  A    between atoms: _199  and  _200
REMARK   85  A    between atoms: _199  and  _202
REMARK   86  A    between atoms: _202  and  _203
REMARK   87  A    between atoms: _206  and  _208
REMARK   88  A    between atoms: _208  and  _209
REMARK   89  A    between atoms: _208  and  _211
REMARK   90  A    between atoms: _211  and  _212
REMARK   91  A    between atoms: _215  and  _217
REMARK   92  A    between atoms: _217  and  _218
REMARK   93  A    between atoms: _217  and  _220
REMARK   94  A    between atoms: _220  and  _221
REMARK   95  A    between atoms: _221  and  _222
REMARK   96  A    between atoms: _224  and  _226
REMARK   97  A    between atoms: _226  and  _227
REMARK   98  A    between atoms: _226  and  _229
REMARK   99  A    between atoms: _229  and  _230
REMARK  100  A    between atoms: _233  and  _235
REMARK  101  A    between atoms: _235  and  _236
REMARK  102  A    between atoms: _235  and  _238
REMARK  103  A    between atoms: _238  and  _239
REMARK  104  A    between atoms: _239  and  _240
REMARK  105  A    between atoms: _240  and  _241
REMARK  106  A    between atoms: _250  and  _252
REMARK  107  A    between atoms: _252  and  _253
REMARK  108  A    between atoms: _252  and  _255
REMARK  109  A    between atoms: _255  and  _256
REMARK  110  A    between atoms: _259  and  _261
REMARK  111  A    between atoms: _261  and  _262
REMARK  112  A    between atoms: _261  and  _264
REMARK  113  A    between atoms: _266  and  _268
REMARK  114  A    between atoms: _268  and  _269
REMARK  115  A    between atoms: _268  and  _271
REMARK  116  A    between atoms: _271  and  _272
REMARK  117  A    between atoms: _275  and  _277
REMARK  118  A    between atoms: _277  and  _278
REMARK  119  A    between atoms: _277  and  _280
REMARK  120  A    between atoms: _280  and  _281
REMARK  121  A    between atoms: _281  and  _282
REMARK  122  A    between atoms: _282  and  _283
REMARK  123  A    between atoms: _292  and  _294
REMARK  124  A    between atoms: _294  and  _295
REMARK  125  A    between atoms: _294  and  _297
REMARK  126  A    between atoms: _297  and  _298
REMARK  127  A    between atoms: _298  and  _299
REMARK  128  A    between atoms: _301  and  _303
REMARK  129  A    between atoms: _303  and  _304
REMARK  130  A    between atoms: _303  and  _306
REMARK  131  A    between atoms: _306  and  _307
REMARK  132  A    between atoms: _310  and  _312
REMARK  133  A    between atoms: _312  and  _313
REMARK  134  A    between atoms: _312  and  _315
REMARK  135  A    between atoms: _315  and  _316
REMARK  136  A    between atoms: _322  and  _324
REMARK  137  A    between atoms: _324  and  _325
REMARK  138  A    between atoms: _324  and  _327
REMARK  139  A    between atoms: _327  and  _328
REMARK  140  A    between atoms: _330  and  _332
REMARK  141  A    between atoms: _332  and  _333
REMARK  142  A    between atoms: _332  and  _335
REMARK  143  A    between atoms: _335  and  _336
REMARK  144  A    between atoms: _339  and  _341
REMARK  145  A    between atoms: _341  and  _342
REMARK  146  A    between atoms: _344  and  _346
REMARK  147  A    between atoms: _346  and  _347
REMARK  148  A    between atoms: _346  and  _349
REMARK  149  A    between atoms: _349  and  _350
REMARK  150  A    between atoms: _353  and  _355
REMARK  151  A    between atoms: _355  and  _356
REMARK  152  A    between atoms: _355  and  _358
REMARK  153  A    between atoms: _358  and  _359
REMARK  154  A    between atoms: _359  and  _360
REMARK  155  A    between atoms: _362  and  _364
REMARK  156  A    between atoms: _364  and  _365
REMARK  157  A    between atoms: _364  and  _367
REMARK  158  A    between atoms: _367  and  _368
REMARK  159  A    between atoms: _373  and  _375
REMARK  160  A    between atoms: _375  and  _376
REMARK  161  A    between atoms: _379  and  _381
REMARK  162  A    between atoms: _381  and  _382
REMARK  163  A    between atoms: _384  and  _386
REMARK  164  A    between atoms: _386  and  _387
REMARK  165  A    between atoms: _386  and  _389
REMARK  166  A    between atoms: _389  and  _390
REMARK  167  A    between atoms: _396  and  _398
REMARK  168  A    between atoms: _398  and  _399
REMARK  169  A    between atoms: _401  and  _403
REMARK  170  A    between atoms: _403  and  _404
REMARK  171  A    between atoms: _403  and  _406
REMARK  172  A    between atoms: _406  and  _407
REMARK  173  A    between atoms: _410  and  _412
REMARK  174  A    between atoms: _412  and  _413
REMARK  175  A    between atoms: _412  and  _415
REMARK  176  A    between atoms: _415  and  _416
REMARK  177  A    between atoms: _419  and  _421
REMARK  178  A    between atoms: _421  and  _422
REMARK  179  A    between atoms: _421  and  _424
REMARK  180  A    between atoms: _427  and  _429
REMARK  181  A    between atoms: _429  and  _430
REMARK  182  A    between atoms: _429  and  _432
REMARK  183  A    between atoms: _432  and  _433
REMARK  184  A    between atoms: _436  and  _438
REMARK  185  A    between atoms: _438  and  _439
REMARK  186  A    between atoms: _438  and  _441
REMARK  187  A    between atoms: _441  and  _442
REMARK  188  A    between atoms: _444  and  _446
REMARK  189  A    between atoms: _446  and  _447
REMARK  190  A    between atoms: _446  and  _449
REMARK  191  A    between atoms: _449  and  _450
REMARK  192  A    between atoms: _450  and  _451
REMARK  193  A    between atoms: _451  and  _452
REMARK  194  A    between atoms: _452  and  _453
REMARK  195  A    between atoms: _457  and  _459
REMARK  196  A    between atoms: _459  and  _460
REMARK  197  A    between atoms: _462  and  _464
REMARK  198  A    between atoms: _464  and  _465
REMARK  199  A    between atoms: _468  and  _470
REMARK  200  A    between atoms: _470  and  _471
REMARK  201  A    between atoms: _470  and  _473
REMARK  202  A    between atoms: _474  and  _475
REMARK  203  A    between atoms: _478  and  _480
REMARK  204  A    between atoms: _480  and  _481
REMARK  205  A    between atoms: _480  and  _483
REMARK  206  A    between atoms: _483  and  _484
REMARK  207  A    between atoms: _484  and  _485
REMARK  208  A    between atoms: _485  and  _486
REMARK  209  A    between atoms: _495  and  _497
REMARK  210  A    between atoms: _497  and  _498
REMARK  211  A    between atoms: _501  and  _503
REMARK  212  A    between atoms: _503  and  _504
REMARK  213  A    between atoms: _503  and  _506
REMARK  214  A    between atoms: _506  and  _507
REMARK  215  A    between atoms: _510  and  _512
REMARK  216  A    between atoms: _512  and  _513
REMARK  217  A    between atoms: _512  and  _515
REMARK  218  A    between atoms: _515  and  _516
REMARK  219  A    between atoms: _519  and  _521
REMARK  220  A    between atoms: _521  and  _522
REMARK  221  A    between atoms: _521  and  _524
REMARK  222  A    between atoms: _524  and  _525
REMARK  223  A    between atoms: _528  and  _530
REMARK  224  A    between atoms: _530  and  _531
REMARK  225  A    between atoms: _530  and  _533
REMARK  226  A    between atoms: _533  and  _534
REMARK  227  A    between atoms: _534  and  _535
REMARK  228  A    between atoms: _535  and  _536
REMARK  229  A    between atoms: _536  and  _537
REMARK  230  A    between atoms: _541  and  _543
REMARK  231  A    between atoms: _543  and  _544
REMARK  232  A    between atoms: _543  and  _546
REMARK  233  A    between atoms: _546  and  _547
REMARK  234  A    between atoms: _550  and  _552
REMARK  235  A    between atoms: _552  and  _553
REMARK  236  A    between atoms: _552  and  _555
REMARK  237  A    between atoms: _555  and  _556
REMARK  238  A    between atoms: _556  and  _557
REMARK  239  A    between atoms: _560  and  _561
REMARK  240  A    between atoms: _566  and  _568
REMARK  241  A    between atoms: _568  and  _569
REMARK  242  A    between atoms: _568  and  _571
REMARK  243  A    between atoms: _571  and  _572
REMARK  244  A    between atoms: _575  and  _577
REMARK  245  A    between atoms: _577  and  _578
REMARK  246  A    between atoms: _577  and  _580
REMARK  247  A    between atoms: _580  and  _581
REMARK  248  A    between atoms: _581  and  _582
REMARK  249  A    between atoms: _582  and  _583
REMARK  250  A    between atoms: _592  and  _594
REMARK  251  A    between atoms: _594  and  _595
REMARK  252  A    between atoms: _594  and  _597
REMARK  253  A    between atoms: _597  and  _598
REMARK  254  A    between atoms: _598  and  _599
REMARK  255  A    between atoms: _601  and  _603
REMARK  256  A    between atoms: _603  and  _604
REMARK  257  A    between atoms: _603  and  _606
REMARK  258  A    between atoms: _606  and  _607
REMARK                            x       y       z     vdW  Elec       q    Type
REMARK                         _______ _______ _______ _____ _____    ______ ____
ROOT
ATOM      1  O   HOH     1      29.870  23.383  92.349  0.00  0.00    +0.000 OA
ENDROOT
TORSDOF 0
REMARK  Name = ../refined-set-2016/1fcy/1fcy_pocket.pdb
REMARK  258 active torsions:
REMARK  status: ('A' for Active; 'I' for Inactive)
REMARK    1  A    between atoms: _1  and  _3
REMARK    2  A    between atoms: _3  and  _4
REMARK    3  A    between atoms: _3  and  _6
REMARK    4  A    between atoms: _6  and  _7
REMARK    5  A    between atoms: _10  and  _12
REMARK    6  A    between atoms: _12  and  _13
REMARK    7  A    between atoms: _12  and  _15
REMARK    8  A    between atoms: _15  and  _16
REMARK    9  A    between atoms: _23  and  _24
REMARK   10  A    between atoms: _29  and  _31
REMARK   11  A    between atoms: _31  and  _32
REMARK   12  A    between atoms: _31  and  _34
REMARK   13  A    between atoms: _34  and  _35
REMARK   14  A    between atoms: _38  and  _40
REMARK   15  A    between atoms: _40  and  _41
REMARK   16  A    between atoms: _40  and  _43
REMARK   17  A    between atoms: _43  and  _44
REMARK   18  A    between atoms: _54  and  _56
REMARK   19  A    between atoms: _56  and  _57
REMARK   20  A    between atoms: _56  and  _59
REMARK   21  A    between atoms: _59  and  _60
REMARK   22  A    between atoms: _60  and  _61
REMARK   23  A    between atoms: _61  and  _62
REMARK   24  A    between atoms: _62  and  _63
REMARK   25  A    between atoms: _67  and  _69
REMARK   26  A    between atoms: _69  and  _70
REMARK   27  A    between atoms: _69  and  _72
REMARK   28  A    between atoms: _72  and  _73
REMARK   29  A    between atoms: _79  and  _81
REMARK   30  A    between atoms: _81  and  _82
REMARK   31  A    between atoms: _81  and  _84
REMARK   32  A    between atoms: _84  and  _85
REMARK   33  A    between atoms: _87  and  _89
REMARK   34  A    between atoms: _89  and  _90
REMARK   35  A    between atoms: _89  and  _92
REMARK   36  A    between atoms: _92  and  _93
REMARK   37  A    between atoms: _93  and  _94
REMARK   38  A    between atoms: _97  and  _99
REMARK   39  A    between atoms: _99  and  _100
REMARK   40  A    between atoms: _99  and  _102
REMARK   41  A    between atoms: _102  and  _103
REMARK   42  A    between atoms: _106  and  _108
REMARK   43  A    between atoms: _108  and  _109
REMARK   44  A    between atoms: _112  and  _114
REMARK   45  A    between atoms: _114  and  _115
REMARK   46  A    between atoms: _114  and  _117
REMARK   47  A    between atoms: _117  and  _118
REMARK   48  A    between atoms: _121  and  _123
REMARK   49  A    between atoms: _123  and  _124
REMARK   50  A    between atoms: _123  and  _126
REMARK   51  A    between atoms: _127  and  _128
REMARK   52  A    between atoms: _128  and  _129
REMARK   53  A    between atoms: _129  and  _130
REMARK   54  A    between atoms: _134  and  _136
REMARK   55  A    between atoms: _136  and  _137
REMARK   56  A    between atoms: _136  and  _139
REMARK   57  A    between atoms: _141  and  _143
REMARK   58  A    between atoms: _143  and  _144
REMARK   59  A    between atoms: _143  and  _146
REMARK   60  A    between atoms: _146  and  _147
REMARK   61  A    between atoms: _150  and  _152
REMARK   62  A    between atoms: _152  and  _153
REMARK   63  A    between atoms: _152  and  _155
REMARK   64  A    between atoms: _155  and  _156
REMARK   65  A    between atoms: _156  and  _157
REMARK   66  A    between atoms: _157  and  _158
REMARK   67  A    between atoms: _158  and  _159
REMARK   68  A    between atoms: _163  and  _165
REMARK   69  A    between atoms: _165  and  _166
REMARK   70  A    between atoms: _165  and  _168
REMARK   71  A    between atoms: _168  and  _169
REMARK   72  A    between atoms: _172  and  _174
REMARK   73  A    between atoms: _174  and  _175
REMARK   74  A    between atoms: _174  and  _177
REMARK   75  A    between atoms: _179  and  _181
REMARK   76  A    between atoms: _181  and  _182
REMARK   77  A    between atoms: _181  and  _184
REMARK   78  A    between atoms: _184  and  _185
REMARK   79  A    between atoms: _188  and  _190
REMARK   80  A    between atoms: _190  and  _191
REMARK   81  A    between atoms: _190  and  _193
REMARK   82  A    between atoms: _193  and  _194
REMARK   83  A    between atoms: _197  and  _199
REMARK   84  A    between atoms: _199  and  _200
REMARK   85  A    between atoms: _199  and  _202
REMARK   86  A    between atoms: _202  and  _203
REMARK   87  A    between atoms: _206  and  _208
REMARK   88  A    between atoms: _208  and  _209
REMARK   89  A    between atoms: _208  and  _211
REMARK   90  A    between atoms: _211  and  _212
REMARK   91  A    between atoms: _215  and  _217
REMARK   92  A    between atoms: _217  and  _218
REMARK   93  A    between atoms: _217  and  _220
REMARK   94  A    between atoms: _220  and  _221
REMARK   95  A    between atoms: _221  and  _222
REMARK   96  A    between atoms: _224  and  _226
REMARK   97  A    between atoms: _226  and  _227
REMARK   98  A    between atoms: _226  and  _229
REMARK   99  A    between atoms: _229  and  _230
REMARK  100  A    between atoms: _233  and  _235
REMARK  101  A    between atoms: _235  and  _236
REMARK  102  A    between atoms: _235  and  _238
REMARK  103  A    between atoms: _238  and  _239
REMARK  104  A    between atoms: _239  and  _240
REMARK  105  A    between atoms: _240  and  _241
REMARK  106  A    between atoms: _250  and  _252
REMARK  107  A    between atoms: _252  and  _253
REMARK  108  A    between atoms: _252  and  _255
REMARK  109  A    between atoms: _255  and  _256
REMARK  110  A    between atoms: _259  and  _261
REMARK  111  A    between atoms: _261  and  _262
REMARK  112  A    between atoms: _261  and  _264
REMARK  113  A    between atoms: _266  and  _268
REMARK  114  A    between atoms: _268  and  _269
REMARK  115  A    between atoms: _268  and  _271
REMARK  116  A    between atoms: _271  and  _272
REMARK  117  A    between atoms: _275  and  _277
REMARK  118  A    between atoms: _277  and  _278
REMARK  119  A    between atoms: _277  and  _280
REMARK  120  A    between atoms: _280  and  _281
REMARK  121  A    between atoms: _281  and  _282
REMARK  122  A    between atoms: _282  and  _283
REMARK  123  A    between atoms: _292  and  _294
REMARK  124  A    between atoms: _294  and  _295
REMARK  125  A    between atoms: _294  and  _297
REMARK  126  A    between atoms: _297  and  _298
REMARK  127  A    between atoms: _298  and  _299
REMARK  128  A    between atoms: _301  and  _303
REMARK  129  A    between atoms: _303  and  _304
REMARK  130  A    between atoms: _303  and  _306
REMARK  131  A    between atoms: _306  and  _307
REMARK  132  A    between atoms: _310  and  _312
REMARK  133  A    between atoms: _312  and  _313
REMARK  134  A    between atoms: _312  and  _315
REMARK  135  A    between atoms: _315  and  _316
REMARK  136  A    between atoms: _322  and  _324
REMARK  137  A    between atoms: _324  and  _325
REMARK  138  A    between atoms: _324  and  _327
REMARK  139  A    between atoms: _327  and  _328
REMARK  140  A    between atoms: _330  and  _332
REMARK  141  A    between atoms: _332  and  _333
REMARK  142  A    between atoms: _332  and  _335
REMARK  143  A    between atoms: _335  and  _336
REMARK  144  A    between atoms: _339  and  _341
REMARK  145  A    between atoms: _341  and  _342
REMARK  146  A    between atoms: _344  and  _346
REMARK  147  A    between atoms: _346  and  _347
REMARK  148  A    between atoms: _346  and  _349
REMARK  149  A    between atoms: _349  and  _350
REMARK  150  A    between atoms: _353  and  _355
REMARK  151  A    between atoms: _355  and  _356
REMARK  152  A    between atoms: _355  and  _358
REMARK  153  A    between atoms: _358  and  _359
REMARK  154  A    between atoms: _359  and  _360
REMARK  155  A    between atoms: _362  and  _364
REMARK  156  A    between atoms: _364  and  _365
REMARK  157  A    between atoms: _364  and  _367
REMARK  158  A    between atoms: _367  and  _368
REMARK  159  A    between atoms: _373  and  _375
REMARK  160  A    between atoms: _375  and  _376
REMARK  161  A    between atoms: _379  and  _381
REMARK  162  A    between atoms: _381  and  _382
REMARK  163  A    between atoms: _384  and  _386
REMARK  164  A    between atoms: _386  and  _387
REMARK  165  A    between atoms: _386  and  _389
REMARK  166  A    between atoms: _389  and  _390
REMARK  167  A    between atoms: _396  and  _398
REMARK  168  A    between atoms: _398  and  _399
REMARK  169  A    between atoms: _401  and  _403
REMARK  170  A    between atoms: _403  and  _404
REMARK  171  A    between atoms: _403  and  _406
REMARK  172  A    between atoms: _406  and  _407
REMARK  173  A    between atoms: _410  and  _412
REMARK  174  A    between atoms: _412  and  _413
REMARK  175  A    between atoms: _412  and  _415
REMARK  176  A    between atoms: _415  and  _416
REMARK  177  A    between atoms: _419  and  _421
REMARK  178  A    between atoms: _421  and  _422
REMARK  179  A    between atoms: _421  and  _424
REMARK  180  A    between atoms: _427  and  _429
REMARK  181  A    between atoms: _429  and  _430
REMARK  182  A    between atoms: _429  and  _432
REMARK  183  A    between atoms: _432  and  _433
REMARK  184  A    between atoms: _436  and  _438
REMARK  185  A    between atoms: _438  and  _439
REMARK  186  A    between atoms: _438  and  _441
REMARK  187  A    between atoms: _441  and  _442
REMARK  188  A    between atoms: _444  and  _446
REMARK  189  A    between atoms: _446  and  _447
REMARK  190  A    between atoms: _446  and  _449
REMARK  191  A    between atoms: _449  and  _450
REMARK  192  A    between atoms: _450  and  _451
REMARK  193  A    between atoms: _451  and  _452
REMARK  194  A    between atoms: _452  and  _453
REMARK  195  A    between atoms: _457  and  _459
REMARK  196  A    between atoms: _459  and  _460
REMARK  197  A    between atoms: _462  and  _464
REMARK  198  A    between atoms: _464  and  _465
REMARK  199  A    between atoms: _468  and  _470
REMARK  200  A    between atoms: _470  and  _471
REMARK  201  A    between atoms: _470  and  _473
REMARK  202  A    between atoms: _474  and  _475
REMARK  203  A    between atoms: _478  and  _480
REMARK  204  A    between atoms: _480  and  _481
REMARK  205  A    between atoms: _480  and  _483
REMARK  206  A    between atoms: _483  and  _484
REMARK  207  A    between atoms: _484  and  _485
REMARK  208  A    between atoms: _485  and  _486
REMARK  209  A    between atoms: _495  and  _497
REMARK  210  A    between atoms: _497  and  _498
REMARK  211  A    between atoms: _501  and  _503
REMARK  212  A    between atoms: _503  and  _504
REMARK  213  A    between atoms: _503  and  _506
REMARK  214  A    between atoms: _506  and  _507
REMARK  215  A    between atoms: _510  and  _512
REMARK  216  A    between atoms: _512  and  _513
REMARK  217  A    between atoms: _512  and  _515
REMARK  218  A    between atoms: _515  and  _516
REMARK  219  A    between atoms: _519  and  _521
REMARK  220  A    between atoms: _521  and  _522
REMARK  221  A    between atoms: _521  and  _524
REMARK  222  A    between atoms: _524  and  _525
REMARK  223  A    between atoms: _528  and  _530
REMARK  224  A    between atoms: _530  and  _531
REMARK  225  A    between atoms: _530  and  _533
REMARK  226  A    between atoms: _533  and  _534
REMARK  227  A    between atoms: _534  and  _535
REMARK  228  A    between atoms: _535  and  _536
REMARK  229  A    between atoms: _536  and  _537
REMARK  230  A    between atoms: _541  and  _543
REMARK  231  A    between atoms: _543  and  _544
REMARK  232  A    between atoms: _543  and  _546
REMARK  233  A    between atoms: _546  and  _547
REMARK  234  A    between atoms: _550  and  _552
REMARK  235  A    between atoms: _552  and  _553
REMARK  236  A    between atoms: _552  and  _555
REMARK  237  A    between atoms: _555  and  _556
REMARK  238  A    between atoms: _556  and  _557
REMARK  239  A    between atoms: _560  and  _561
REMARK  240  A    between atoms: _566  and  _568
REMARK  241  A    between atoms: _568  and  _569
REMARK  242  A    between atoms: _568  and  _571
REMARK  243  A    between atoms: _571  and  _572
REMARK  244  A    between atoms: _575  and  _577
REMARK  245  A    between atoms: _577  and  _578
REMARK  246  A    between atoms: _577  and  _580
REMARK  247  A    between atoms: _580  and  _581
REMARK  248  A    between atoms: _581  and  _582
REMARK  249  A    between atoms: _582  and  _583
REMARK  250  A    between atoms: _592  and  _594
REMARK  251  A    between atoms: _594  and  _595
REMARK  252  A    between atoms: _594  and  _597
REMARK  253  A    between atoms: _597  and  _598
REMARK  254  A    between atoms: _598  and  _599
REMARK  255  A    between atoms: _601  and  _603
REMARK  256  A    between atoms: _603  and  _604
REMARK  257  A    between atoms: _603  and  _606
REMARK  258  A    between atoms: _606  and  _607
REMARK                            x       y       z     vdW  Elec       q    Type
REMARK                         _______ _______ _______ _____ _____    ______ ____
ROOT
ATOM      1  O   HOH     1      53.712  14.314  81.274  0.00  0.00    +0.000 OA
ENDROOT
TORSDOF 0
