REMARK  Name = ../refined-set-2016/2ri9/2ri9_pocket.pdb
REMARK  140 active torsions:
REMARK  status: ('A' for Active; 'I' for Inactive)
REMARK    1  A    between atoms: _1  and  _3
REMARK    2  A    between atoms: _3  and  _4
REMARK    3  A    between atoms: _3  and  _6
REMARK    4  A    between atoms: _6  and  _7
REMARK    5  A    between atoms: _7  and  _8
REMARK    6  A    between atoms: _8  and  _9
REMARK    7  A    between atoms: _18  and  _20
REMARK    8  A    between atoms: _20  and  _21
REMARK    9  A    between atoms: _20  and  _23
REMARK   10  A    between atoms: _23  and  _24
REMARK   11  A    between atoms: _27  and  _29
REMARK   12  A    between atoms: _29  and  _30
REMARK   13  A    between atoms: _29  and  _32
REMARK   14  A    between atoms: _32  and  _33
REMARK   15  A    between atoms: _39  and  _41
REMARK   16  A    between atoms: _41  and  _42
REMARK   17  A    between atoms: _41  and  _44
REMARK   18  A    between atoms: _44  and  _45
REMARK   19  A    between atoms: _45  and  _46
REMARK   20  A    between atoms: _49  and  _51
REMARK   21  A    between atoms: _51  and  _52
REMARK   22  A    between atoms: _51  and  _54
REMARK   23  A    between atoms: _54  and  _55
REMARK   24  A    between atoms: _58  and  _60
REMARK   25  A    between atoms: _60  and  _61
REMARK   26  A    between atoms: _60  and  _63
REMARK   27  A    between atoms: _63  and  _64
REMARK   28  A    between atoms: _64  and  _65
REMARK   29  A    between atoms: _65  and  _66
REMARK   30  A    between atoms: _75  and  _77
REMARK   31  A    between atoms: _77  and  _78
REMARK   32  A    between atoms: _81  and  _83
REMARK   33  A    between atoms: _83  and  _84
REMARK   34  A    between atoms: _83  and  _86
REMARK   35  A    between atoms: _86  and  _87
REMARK   36  A    between atoms: _90  and  _92
REMARK   37  A    between atoms: _92  and  _93
REMARK   38  A    between atoms: _95  and  _97
REMARK   39  A    between atoms: _97  and  _98
REMARK   40  A    between atoms: _100  and  _102
REMARK   41  A    between atoms: _102  and  _103
REMARK   42  A    between atoms: _102  and  _105
REMARK   43  A    between atoms: _105  and  _106
REMARK   44  A    between atoms: _109  and  _111
REMARK   45  A    between atoms: _111  and  _112
REMARK   46  A    between atoms: _111  and  _114
REMARK   47  A    between atoms: _114  and  _115
REMARK   48  A    between atoms: _117  and  _119
REMARK   49  A    between atoms: _119  and  _120
REMARK   50  A    between atoms: _119  and  _122
REMARK   51  A    between atoms: _122  and  _123
REMARK   52  A    between atoms: _123  and  _124
REMARK   53  A    between atoms: _127  and  _129
REMARK   54  A    between atoms: _129  and  _130
REMARK   55  A    between atoms: _129  and  _132
REMARK   56  A    between atoms: _132  and  _133
REMARK   57  A    between atoms: _138  and  _139
REMARK   58  A    between atoms: _141  and  _143
REMARK   59  A    between atoms: _143  and  _144
REMARK   60  A    between atoms: _143  and  _146
REMARK   61  A    between atoms: _146  and  _147
REMARK   62  A    between atoms: _147  and  _148
REMARK   63  A    between atoms: _148  and  _149
REMARK   64  A    between atoms: _149  and  _150
REMARK   65  A    between atoms: _154  and  _156
REMARK   66  A    between atoms: _156  and  _157
REMARK   67  A    between atoms: _156  and  _159
REMARK   68  A    between atoms: _159  and  _160
REMARK   69  A    between atoms: _163  and  _165
REMARK   70  A    between atoms: _165  and  _166
REMARK   71  A    between atoms: _165  and  _168
REMARK   72  A    between atoms: _168  and  _169
REMARK   73  A    between atoms: _175  and  _177
REMARK   74  A    between atoms: _177  and  _178
REMARK   75  A    between atoms: _177  and  _180
REMARK   76  A    between atoms: _183  and  _185
REMARK   77  A    between atoms: _185  and  _186
REMARK   78  A    between atoms: _185  and  _188
REMARK   79  A    between atoms: _188  and  _189
REMARK   80  A    between atoms: _192  and  _194
REMARK   81  A    between atoms: _194  and  _195
REMARK   82  A    between atoms: _194  and  _197
REMARK   83  A    between atoms: _197  and  _198
REMARK   84  A    between atoms: _198  and  _199
REMARK   85  A    between atoms: _199  and  _200
REMARK   86  A    between atoms: _210  and  _211
REMARK   87  A    between atoms: _216  and  _218
REMARK   88  A    between atoms: _218  and  _219
REMARK   89  A    between atoms: _218  and  _221
REMARK   90  A    between atoms: _221  and  _222
REMARK   91  A    between atoms: _222  and  _223
REMARK   92  A    between atoms: _226  and  _228
REMARK   93  A    between atoms: _228  and  _229
REMARK   94  A    between atoms: _228  and  _231
REMARK   95  A    between atoms: _231  and  _232
REMARK   96  A    between atoms: _232  and  _233
REMARK   97  A    between atoms: _236  and  _238
REMARK   98  A    between atoms: _238  and  _239
REMARK   99  A    between atoms: _238  and  _241
REMARK  100  A    between atoms: _241  and  _242
REMARK  101  A    between atoms: _242  and  _243
REMARK  102  A    between atoms: _246  and  _248
REMARK  103  A    between atoms: _248  and  _249
REMARK  104  A    between atoms: _248  and  _251
REMARK  105  A    between atoms: _251  and  _252
REMARK  106  A    between atoms: _254  and  _256
REMARK  107  A    between atoms: _256  and  _257
REMARK  108  A    between atoms: _256  and  _259
REMARK  109  A    between atoms: _259  and  _260
REMARK  110  A    between atoms: _266  and  _268
REMARK  111  A    between atoms: _268  and  _269
REMARK  112  A    between atoms: _268  and  _271
REMARK  113  A    between atoms: _271  and  _272
REMARK  114  A    between atoms: _275  and  _277
REMARK  115  A    between atoms: _277  and  _278
REMARK  116  A    between atoms: _281  and  _283
REMARK  117  A    between atoms: _283  and  _284
REMARK  118  A    between atoms: _283  and  _286
REMARK  119  A    between atoms: _286  and  _287
REMARK  120  A    between atoms: _287  and  _288
REMARK  121  A    between atoms: _291  and  _293
REMARK  122  A    between atoms: _293  and  _294
REMARK  123  A    between atoms: _293  and  _296
REMARK  124  A    between atoms: _296  and  _297
REMARK  125  A    between atoms: _302  and  _303
REMARK  126  A    between atoms: _305  and  _307
REMARK  127  A    between atoms: _307  and  _308
REMARK  128  A    between atoms: _307  and  _310
REMARK  129  A    between atoms: _310  and  _311
REMARK  130  A    between atoms: _316  and  _318
REMARK  131  A    between atoms: _318  and  _319
REMARK  132  A    between atoms: _318  and  _321
REMARK  133  A    between atoms: _321  and  _322
REMARK  134  A    between atoms: _325  and  _327
REMARK  135  A    between atoms: _327  and  _328
REMARK  136  A    between atoms: _327  and  _330
REMARK  137  A    between atoms: _330  and  _331
REMARK  138  A    between atoms: _331  and  _332
REMARK  139  A    between atoms: _335  and  _337
REMARK  140  A    between atoms: _337  and  _338
REMARK                            x       y       z     vdW  Elec       q    Type
REMARK                         _______ _______ _______ _____ _____    ______ ____
ROOT
ATOM      1  NE  ARG A   1      26.803  20.746 -41.235  0.00  0.00    -0.265 N 
ATOM      2  CZ  ARG A   1      26.693  21.669 -40.287  0.00  0.00    +0.342 C 
ATOM      3  NH2 ARG A   1      27.728  21.941 -39.481  0.00  0.00    -0.292 N 
ATOM      4 HH21 ARG A   1      27.634  22.665 -38.741  0.00  0.00    +0.255 HD
ATOM      5 HH22 ARG A   1      28.625  21.428 -39.596  0.00  0.00    +0.255 HD
ATOM      6  NH1 ARG A   1      25.537  22.309 -40.119  0.00  0.00    -0.292 N 
ATOM      7 HH11 ARG A   1      25.446  23.033 -39.378  0.00  0.00    +0.255 HD
ATOM      8 HH12 ARG A   1      24.725  22.085 -40.729  0.00  0.00    +0.255 HD
ATOM      9  HE  ARG A   1      25.974  20.573 -41.839  0.00  0.00    +0.259 HD
ENDROOT
BRANCH   1  10
ATOM     10  CD  ARG A   1      28.016  19.950 -41.492  0.00  0.00    +0.174 C 
BRANCH  10  11
ATOM     11  CG  ARG A   1      28.074  18.541 -40.810  0.00  0.00    +0.045 C 
BRANCH  11  12
ATOM     12  CB  ARG A   1      26.900  17.617 -41.243  0.00  0.00    +0.029 C 
BRANCH  12  13
ATOM     13  CA  ARG A   1      25.692  17.642 -40.285  0.00  0.00    +0.133 C 
BRANCH  13  14
ATOM     14  N   ARG A   1      26.114  17.149 -38.975  0.00  0.00    -0.239 NA
ATOM     15  H   ARG A   1      26.310  16.135 -38.854  0.00  0.00    +0.142 HD
ENDBRANCH  13  14
BRANCH  13  16
ATOM     16  C   ARG A   1      24.512  16.869 -40.908  0.00  0.00    +0.224 C 
ATOM     17  O   ARG A   1      24.586  16.414 -42.040  0.00  0.00    -0.287 OA
ENDBRANCH  13  16
ENDBRANCH  12  13
ENDBRANCH  11  12
ENDBRANCH  10  11
ENDBRANCH   1  10
TORSDOF 6
REMARK  Name = ../refined-set-2016/2ri9/2ri9_pocket.pdb
REMARK  140 active torsions:
REMARK  status: ('A' for Active; 'I' for Inactive)
REMARK    1  A    between atoms: _1  and  _3
REMARK    2  A    between atoms: _3  and  _4
REMARK    3  A    between atoms: _3  and  _6
REMARK    4  A    between atoms: _6  and  _7
REMARK    5  A    between atoms: _7  and  _8
REMARK    6  A    between atoms: _8  and  _9
REMARK    7  A    between atoms: _18  and  _20
REMARK    8  A    between atoms: _20  and  _21
REMARK    9  A    between atoms: _20  and  _23
REMARK   10  A    between atoms: _23  and  _24
REMARK   11  A    between atoms: _27  and  _29
REMARK   12  A    between atoms: _29  and  _30
REMARK   13  A    between atoms: _29  and  _32
REMARK   14  A    between atoms: _32  and  _33
REMARK   15  A    between atoms: _39  and  _41
REMARK   16  A    between atoms: _41  and  _42
REMARK   17  A    between atoms: _41  and  _44
REMARK   18  A    between atoms: _44  and  _45
REMARK   19  A    between atoms: _45  and  _46
REMARK   20  A    between atoms: _49  and  _51
REMARK   21  A    between atoms: _51  and  _52
REMARK   22  A    between atoms: _51  and  _54
REMARK   23  A    between atoms: _54  and  _55
REMARK   24  A    between atoms: _58  and  _60
REMARK   25  A    between atoms: _60  and  _61
REMARK   26  A    between atoms: _60  and  _63
REMARK   27  A    between atoms: _63  and  _64
REMARK   28  A    between atoms: _64  and  _65
REMARK   29  A    between atoms: _65  and  _66
REMARK   30  A    between atoms: _75  and  _77
REMARK   31  A    between atoms: _77  and  _78
REMARK   32  A    between atoms: _81  and  _83
REMARK   33  A    between atoms: _83  and  _84
REMARK   34  A    between atoms: _83  and  _86
REMARK   35  A    between atoms: _86  and  _87
REMARK   36  A    between atoms: _90  and  _92
REMARK   37  A    between atoms: _92  and  _93
REMARK   38  A    between atoms: _95  and  _97
REMARK   39  A    between atoms: _97  and  _98
REMARK   40  A    between atoms: _100  and  _102
REMARK   41  A    between atoms: _102  and  _103
REMARK   42  A    between atoms: _102  and  _105
REMARK   43  A    between atoms: _105  and  _106
REMARK   44  A    between atoms: _109  and  _111
REMARK   45  A    between atoms: _111  and  _112
REMARK   46  A    between atoms: _111  and  _114
REMARK   47  A    between atoms: _114  and  _115
REMARK   48  A    between atoms: _117  and  _119
REMARK   49  A    between atoms: _119  and  _120
REMARK   50  A    between atoms: _119  and  _122
REMARK   51  A    between atoms: _122  and  _123
REMARK   52  A    between atoms: _123  and  _124
REMARK   53  A    between atoms: _127  and  _129
REMARK   54  A    between atoms: _129  and  _130
REMARK   55  A    between atoms: _129  and  _132
REMARK   56  A    between atoms: _132  and  _133
REMARK   57  A    between atoms: _138  and  _139
REMARK   58  A    between atoms: _141  and  _143
REMARK   59  A    between atoms: _143  and  _144
REMARK   60  A    between atoms: _143  and  _146
REMARK   61  A    between atoms: _146  and  _147
REMARK   62  A    between atoms: _147  and  _148
REMARK   63  A    between atoms: _148  and  _149
REMARK   64  A    between atoms: _149  and  _150
REMARK   65  A    between atoms: _154  and  _156
REMARK   66  A    between atoms: _156  and  _157
REMARK   67  A    between atoms: _156  and  _159
REMARK   68  A    between atoms: _159  and  _160
REMARK   69  A    between atoms: _163  and  _165
REMARK   70  A    between atoms: _165  and  _166
REMARK   71  A    between atoms: _165  and  _168
REMARK   72  A    between atoms: _168  and  _169
REMARK   73  A    between atoms: _175  and  _177
REMARK   74  A    between atoms: _177  and  _178
REMARK   75  A    between atoms: _177  and  _180
REMARK   76  A    between atoms: _183  and  _185
REMARK   77  A    between atoms: _185  and  _186
REMARK   78  A    between atoms: _185  and  _188
REMARK   79  A    between atoms: _188  and  _189
REMARK   80  A    between atoms: _192  and  _194
REMARK   81  A    between atoms: _194  and  _195
REMARK   82  A    between atoms: _194  and  _197
REMARK   83  A    between atoms: _197  and  _198
REMARK   84  A    between atoms: _198  and  _199
REMARK   85  A    between atoms: _199  and  _200
REMARK   86  A    between atoms: _210  and  _211
REMARK   87  A    between atoms: _216  and  _218
REMARK   88  A    between atoms: _218  and  _219
REMARK   89  A    between atoms: _218  and  _221
REMARK   90  A    between atoms: _221  and  _222
REMARK   91  A    between atoms: _222  and  _223
REMARK   92  A    between atoms: _226  and  _228
REMARK   93  A    between atoms: _228  and  _229
REMARK   94  A    between atoms: _228  and  _231
REMARK   95  A    between atoms: _231  and  _232
REMARK   96  A    between atoms: _232  and  _233
REMARK   97  A    between atoms: _236  and  _238
REMARK   98  A    between atoms: _238  and  _239
REMARK   99  A    between atoms: _238  and  _241
REMARK  100  A    between atoms: _241  and  _242
REMARK  101  A    between atoms: _242  and  _243
REMARK  102  A    between atoms: _246  and  _248
REMARK  103  A    between atoms: _248  and  _249
REMARK  104  A    between atoms: _248  and  _251
REMARK  105  A    between atoms: _251  and  _252
REMARK  106  A    between atoms: _254  and  _256
REMARK  107  A    between atoms: _256  and  _257
REMARK  108  A    between atoms: _256  and  _259
REMARK  109  A    between atoms: _259  and  _260
REMARK  110  A    between atoms: _266  and  _268
REMARK  111  A    between atoms: _268  and  _269
REMARK  112  A    between atoms: _268  and  _271
REMARK  113  A    between atoms: _271  and  _272
REMARK  114  A    between atoms: _275  and  _277
REMARK  115  A    between atoms: _277  and  _278
REMARK  116  A    between atoms: _281  and  _283
REMARK  117  A    between atoms: _283  and  _284
REMARK  118  A    between atoms: _283  and  _286
REMARK  119  A    between atoms: _286  and  _287
REMARK  120  A    between atoms: _287  and  _288
REMARK  121  A    between atoms: _291  and  _293
REMARK  122  A    between atoms: _293  and  _294
REMARK  123  A    between atoms: _293  and  _296
REMARK  124  A    between atoms: _296  and  _297
REMARK  125  A    between atoms: _302  and  _303
REMARK  126  A    between atoms: _305  and  _307
REMARK  127  A    between atoms: _307  and  _308
REMARK  128  A    between atoms: _307  and  _310
REMARK  129  A    between atoms: _310  and  _311
REMARK  130  A    between atoms: _316  and  _318
REMARK  131  A    between atoms: _318  and  _319
REMARK  132  A    between atoms: _318  and  _321
REMARK  133  A    between atoms: _321  and  _322
REMARK  134  A    between atoms: _325  and  _327
REMARK  135  A    between atoms: _327  and  _328
REMARK  136  A    between atoms: _327  and  _330
REMARK  137  A    between atoms: _330  and  _331
REMARK  138  A    between atoms: _331  and  _332
REMARK  139  A    between atoms: _335  and  _337
REMARK  140  A    between atoms: _337  and  _338
REMARK                            x       y       z     vdW  Elec       q    Type
REMARK                         _______ _______ _______ _____ _____    ______ ____
ROOT
ATOM      1  CA  ASP A   1      33.883  16.079 -47.977  0.00  0.00    +0.144 C 
ENDROOT
BRANCH   1   2
ATOM      2  N   ASP A   1      32.843  15.037 -47.963  0.00  0.00    -0.239 NA
ATOM      3  H   ASP A   1      32.478  14.702 -47.049  0.00  0.00    +0.142 HD
ENDBRANCH   1   2
BRANCH   1   4
ATOM      4  C   ASP A   1      35.221  15.484 -48.409  0.00  0.00    +0.225 C 
ATOM      5  O   ASP A   1      36.066  16.192 -48.918  0.00  0.00    -0.287 OA
ENDBRANCH   1   4
BRANCH   1   6
ATOM      6  CB  ASP A   1      34.062  16.715 -46.567  0.00  0.00    +0.139 C 
BRANCH   6   7
ATOM      7  CG  ASP A   1      33.684  18.225 -46.528  0.00  0.00    +0.367 C 
ATOM      8  OD2 ASP A   1      33.888  18.892 -45.481  0.00  0.00    -0.246 OA
ATOM      9  OD1 ASP A   1      33.174  18.750 -47.535  0.00  0.00    -0.246 OA
ENDBRANCH   6   7
ENDBRANCH   1   6
TORSDOF 4
REMARK  Name = ../refined-set-2016/2ri9/2ri9_pocket.pdb
REMARK  140 active torsions:
REMARK  status: ('A' for Active; 'I' for Inactive)
REMARK    1  A    between atoms: _1  and  _3
REMARK    2  A    between atoms: _3  and  _4
REMARK    3  A    between atoms: _3  and  _6
REMARK    4  A    between atoms: _6  and  _7
REMARK    5  A    between atoms: _7  and  _8
REMARK    6  A    between atoms: _8  and  _9
REMARK    7  A    between atoms: _18  and  _20
REMARK    8  A    between atoms: _20  and  _21
REMARK    9  A    between atoms: _20  and  _23
REMARK   10  A    between atoms: _23  and  _24
REMARK   11  A    between atoms: _27  and  _29
REMARK   12  A    between atoms: _29  and  _30
REMARK   13  A    between atoms: _29  and  _32
REMARK   14  A    between atoms: _32  and  _33
REMARK   15  A    between atoms: _39  and  _41
REMARK   16  A    between atoms: _41  and  _42
REMARK   17  A    between atoms: _41  and  _44
REMARK   18  A    between atoms: _44  and  _45
REMARK   19  A    between atoms: _45  and  _46
REMARK   20  A    between atoms: _49  and  _51
REMARK   21  A    between atoms: _51  and  _52
REMARK   22  A    between atoms: _51  and  _54
REMARK   23  A    between atoms: _54  and  _55
REMARK   24  A    between atoms: _58  and  _60
REMARK   25  A    between atoms: _60  and  _61
REMARK   26  A    between atoms: _60  and  _63
REMARK   27  A    between atoms: _63  and  _64
REMARK   28  A    between atoms: _64  and  _65
REMARK   29  A    between atoms: _65  and  _66
REMARK   30  A    between atoms: _75  and  _77
REMARK   31  A    between atoms: _77  and  _78
REMARK   32  A    between atoms: _81  and  _83
REMARK   33  A    between atoms: _83  and  _84
REMARK   34  A    between atoms: _83  and  _86
REMARK   35  A    between atoms: _86  and  _87
REMARK   36  A    between atoms: _90  and  _92
REMARK   37  A    between atoms: _92  and  _93
REMARK   38  A    between atoms: _95  and  _97
REMARK   39  A    between atoms: _97  and  _98
REMARK   40  A    between atoms: _100  and  _102
REMARK   41  A    between atoms: _102  and  _103
REMARK   42  A    between atoms: _102  and  _105
REMARK   43  A    between atoms: _105  and  _106
REMARK   44  A    between atoms: _109  and  _111
REMARK   45  A    between atoms: _111  and  _112
REMARK   46  A    between atoms: _111  and  _114
REMARK   47  A    between atoms: _114  and  _115
REMARK   48  A    between atoms: _117  and  _119
REMARK   49  A    between atoms: _119  and  _120
REMARK   50  A    between atoms: _119  and  _122
REMARK   51  A    between atoms: _122  and  _123
REMARK   52  A    between atoms: _123  and  _124
REMARK   53  A    between atoms: _127  and  _129
REMARK   54  A    between atoms: _129  and  _130
REMARK   55  A    between atoms: _129  and  _132
REMARK   56  A    between atoms: _132  and  _133
REMARK   57  A    between atoms: _138  and  _139
REMARK   58  A    between atoms: _141  and  _143
REMARK   59  A    between atoms: _143  and  _144
REMARK   60  A    between atoms: _143  and  _146
REMARK   61  A    between atoms: _146  and  _147
REMARK   62  A    between atoms: _147  and  _148
REMARK   63  A    between atoms: _148  and  _149
REMARK   64  A    between atoms: _149  and  _150
REMARK   65  A    between atoms: _154  and  _156
REMARK   66  A    between atoms: _156  and  _157
REMARK   67  A    between atoms: _156  and  _159
REMARK   68  A    between atoms: _159  and  _160
REMARK   69  A    between atoms: _163  and  _165
REMARK   70  A    between atoms: _165  and  _166
REMARK   71  A    between atoms: _165  and  _168
REMARK   72  A    between atoms: _168  and  _169
REMARK   73  A    between atoms: _175  and  _177
REMARK   74  A    between atoms: _177  and  _178
REMARK   75  A    between atoms: _177  and  _180
REMARK   76  A    between atoms: _183  and  _185
REMARK   77  A    between atoms: _185  and  _186
REMARK   78  A    between atoms: _185  and  _188
REMARK   79  A    between atoms: _188  and  _189
REMARK   80  A    between atoms: _192  and  _194
REMARK   81  A    between atoms: _194  and  _195
REMARK   82  A    between atoms: _194  and  _197
REMARK   83  A    between atoms: _197  and  _198
REMARK   84  A    between atoms: _198  and  _199
REMARK   85  A    between atoms: _199  and  _200
REMARK   86  A    between atoms: _210  and  _211
REMARK   87  A    between atoms: _216  and  _218
REMARK   88  A    between atoms: _218  and  _219
REMARK   89  A    between atoms: _218  and  _221
REMARK   90  A    between atoms: _221  and  _222
REMARK   91  A    between atoms: _222  and  _223
REMARK   92  A    between atoms: _226  and  _228
REMARK   93  A    between atoms: _228  and  _229
REMARK   94  A    between atoms: _228  and  _231
REMARK   95  A    between atoms: _231  and  _232
REMARK   96  A    between atoms: _232  and  _233
REMARK   97  A    between atoms: _236  and  _238
REMARK   98  A    between atoms: _238  and  _239
REMARK   99  A    between atoms: _238  and  _241
REMARK  100  A    between atoms: _241  and  _242
REMARK  101  A    between atoms: _242  and  _243
REMARK  102  A    between atoms: _246  and  _248
REMARK  103  A    between atoms: _248  and  _249
REMARK  104  A    between atoms: _248  and  _251
REMARK  105  A    between atoms: _251  and  _252
REMARK  106  A    between atoms: _254  and  _256
REMARK  107  A    between atoms: _256  and  _257
REMARK  108  A    between atoms: _256  and  _259
REMARK  109  A    between atoms: _259  and  _260
REMARK  110  A    between atoms: _266  and  _268
REMARK  111  A    between atoms: _268  and  _269
REMARK  112  A    between atoms: _268  and  _271
REMARK  113  A    between atoms: _271  and  _272
REMARK  114  A    between atoms: _275  and  _277
REMARK  115  A    between atoms: _277  and  _278
REMARK  116  A    between atoms: _281  and  _283
REMARK  117  A    between atoms: _283  and  _284
REMARK  118  A    between atoms: _283  and  _286
REMARK  119  A    between atoms: _286  and  _287
REMARK  120  A    between atoms: _287  and  _288
REMARK  121  A    between atoms: _291  and  _293
REMARK  122  A    between atoms: _293  and  _294
REMARK  123  A    between atoms: _293  and  _296
REMARK  124  A    between atoms: _296  and  _297
REMARK  125  A    between atoms: _302  and  _303
REMARK  126  A    between atoms: _305  and  _307
REMARK  127  A    between atoms: _307  and  _308
REMARK  128  A    between atoms: _307  and  _310
REMARK  129  A    between atoms: _310  and  _311
REMARK  130  A    between atoms: _316  and  _318
REMARK  131  A    between atoms: _318  and  _319
REMARK  132  A    between atoms: _318  and  _321
REMARK  133  A    between atoms: _321  and  _322
REMARK  134  A    between atoms: _325  and  _327
REMARK  135  A    between atoms: _327  and  _328
REMARK  136  A    between atoms: _327  and  _330
REMARK  137  A    between atoms: _330  and  _331
REMARK  138  A    between atoms: _331  and  _332
REMARK  139  A    between atoms: _335  and  _337
REMARK  140  A    between atoms: _337  and  _338
REMARK                            x       y       z     vdW  Elec       q    Type
REMARK                         _______ _______ _______ _____ _____    ______ ____
ROOT
ATOM      1  C   PHE A   1      26.131  26.416 -45.714  0.00  0.00    +0.239 C 
ATOM      2  N   GLU A   2      26.119  25.765 -44.551  0.00  0.00    -0.298 N 
ATOM      3  H   GLU A   2      25.521  26.106 -43.771  0.00  0.00    +0.150 HD
ATOM      4  O   PHE A   1      26.758  26.020 -46.673  0.00  0.00    -0.274 OA
ENDROOT
BRANCH   1   5
ATOM      5  CA  PHE A   1      25.274  27.672 -45.840  0.00  0.00    +0.149 C 
BRANCH   5   6
ATOM      6  N   PHE A   1      23.843  27.397 -45.620  0.00  0.00    -0.238 NA
ATOM      7  H   PHE A   1      23.362  27.873 -44.830  0.00  0.00    +0.142 HD
ENDBRANCH   5   6
BRANCH   5   8
ATOM      8  CB  PHE A   1      25.759  28.732 -44.850  0.00  0.00    +0.053 C 
BRANCH   8   9
ATOM      9  CG  PHE A   1      27.272  28.865 -44.758  0.00  0.00    -0.020 A 
ATOM     10  CD2 PHE A   1      27.936  28.528 -43.588  0.00  0.00    -0.004 A 
ATOM     11  CE2 PHE A   1      29.329  28.739 -43.448  0.00  0.00    -0.000 A 
ATOM     12  CZ  PHE A   1      30.047  29.289 -44.487  0.00  0.00    -0.000 A 
ATOM     13  CE1 PHE A   1      29.405  29.625 -45.672  0.00  0.00    -0.000 A 
ATOM     14  CD1 PHE A   1      28.016  29.409 -45.809  0.00  0.00    -0.004 A 
ENDBRANCH   8   9
ENDBRANCH   5   8
ENDBRANCH   1   5
BRANCH   2  15
ATOM     15  CA  GLU A   2      26.942  24.576 -44.370  0.00  0.00    +0.137 C 
BRANCH  15  16
ATOM     16  C   GLU A   2      26.595  23.440 -45.320  0.00  0.00    +0.227 C 
ATOM     17  O   GLU A   2      27.484  22.710 -45.790  0.00  0.00    -0.286 OA
ENDBRANCH  15  16
BRANCH  15  18
ATOM     18  CB  GLU A   2      26.845  24.065 -42.920  0.00  0.00    +0.039 C 
BRANCH  18  19
ATOM     19  CG  GLU A   2      27.367  25.021 -41.844  0.00  0.00    +0.116 C 
BRANCH  19  20
ATOM     20  CD  GLU A   2      28.897  25.073 -41.784  0.00  0.00    +0.365 C 
ATOM     21  OE2 GLU A   2      29.462  25.922 -41.068  0.00  0.00    -0.246 OA
ATOM     22  OE1 GLU A   2      29.530  24.259 -42.450  0.00  0.00    -0.246 OA
ENDBRANCH  19  20
ENDBRANCH  18  19
ENDBRANCH  15  18
ENDBRANCH   2  15
TORSDOF 9
REMARK  Name = ../refined-set-2016/2ri9/2ri9_pocket.pdb
REMARK  140 active torsions:
REMARK  status: ('A' for Active; 'I' for Inactive)
REMARK    1  A    between atoms: _1  and  _3
REMARK    2  A    between atoms: _3  and  _4
REMARK    3  A    between atoms: _3  and  _6
REMARK    4  A    between atoms: _6  and  _7
REMARK    5  A    between atoms: _7  and  _8
REMARK    6  A    between atoms: _8  and  _9
REMARK    7  A    between atoms: _18  and  _20
REMARK    8  A    between atoms: _20  and  _21
REMARK    9  A    between atoms: _20  and  _23
REMARK   10  A    between atoms: _23  and  _24
REMARK   11  A    between atoms: _27  and  _29
REMARK   12  A    between atoms: _29  and  _30
REMARK   13  A    between atoms: _29  and  _32
REMARK   14  A    between atoms: _32  and  _33
REMARK   15  A    between atoms: _39  and  _41
REMARK   16  A    between atoms: _41  and  _42
REMARK   17  A    between atoms: _41  and  _44
REMARK   18  A    between atoms: _44  and  _45
REMARK   19  A    between atoms: _45  and  _46
REMARK   20  A    between atoms: _49  and  _51
REMARK   21  A    between atoms: _51  and  _52
REMARK   22  A    between atoms: _51  and  _54
REMARK   23  A    between atoms: _54  and  _55
REMARK   24  A    between atoms: _58  and  _60
REMARK   25  A    between atoms: _60  and  _61
REMARK   26  A    between atoms: _60  and  _63
REMARK   27  A    between atoms: _63  and  _64
REMARK   28  A    between atoms: _64  and  _65
REMARK   29  A    between atoms: _65  and  _66
REMARK   30  A    between atoms: _75  and  _77
REMARK   31  A    between atoms: _77  and  _78
REMARK   32  A    between atoms: _81  and  _83
REMARK   33  A    between atoms: _83  and  _84
REMARK   34  A    between atoms: _83  and  _86
REMARK   35  A    between atoms: _86  and  _87
REMARK   36  A    between atoms: _90  and  _92
REMARK   37  A    between atoms: _92  and  _93
REMARK   38  A    between atoms: _95  and  _97
REMARK   39  A    between atoms: _97  and  _98
REMARK   40  A    between atoms: _100  and  _102
REMARK   41  A    between atoms: _102  and  _103
REMARK   42  A    between atoms: _102  and  _105
REMARK   43  A    between atoms: _105  and  _106
REMARK   44  A    between atoms: _109  and  _111
REMARK   45  A    between atoms: _111  and  _112
REMARK   46  A    between atoms: _111  and  _114
REMARK   47  A    between atoms: _114  and  _115
REMARK   48  A    between atoms: _117  and  _119
REMARK   49  A    between atoms: _119  and  _120
REMARK   50  A    between atoms: _119  and  _122
REMARK   51  A    between atoms: _122  and  _123
REMARK   52  A    between atoms: _123  and  _124
REMARK   53  A    between atoms: _127  and  _129
REMARK   54  A    between atoms: _129  and  _130
REMARK   55  A    between atoms: _129  and  _132
REMARK   56  A    between atoms: _132  and  _133
REMARK   57  A    between atoms: _138  and  _139
REMARK   58  A    between atoms: _141  and  _143
REMARK   59  A    between atoms: _143  and  _144
REMARK   60  A    between atoms: _143  and  _146
REMARK   61  A    between atoms: _146  and  _147
REMARK   62  A    between atoms: _147  and  _148
REMARK   63  A    between atoms: _148  and  _149
REMARK   64  A    between atoms: _149  and  _150
REMARK   65  A    between atoms: _154  and  _156
REMARK   66  A    between atoms: _156  and  _157
REMARK   67  A    between atoms: _156  and  _159
REMARK   68  A    between atoms: _159  and  _160
REMARK   69  A    between atoms: _163  and  _165
REMARK   70  A    between atoms: _165  and  _166
REMARK   71  A    between atoms: _165  and  _168
REMARK   72  A    between atoms: _168  and  _169
REMARK   73  A    between atoms: _175  and  _177
REMARK   74  A    between atoms: _177  and  _178
REMARK   75  A    between atoms: _177  and  _180
REMARK   76  A    between atoms: _183  and  _185
REMARK   77  A    between atoms: _185  and  _186
REMARK   78  A    between atoms: _185  and  _188
REMARK   79  A    between atoms: _188  and  _189
REMARK   80  A    between atoms: _192  and  _194
REMARK   81  A    between atoms: _194  and  _195
REMARK   82  A    between atoms: _194  and  _197
REMARK   83  A    between atoms: _197  and  _198
REMARK   84  A    between atoms: _198  and  _199
REMARK   85  A    between atoms: _199  and  _200
REMARK   86  A    between atoms: _210  and  _211
REMARK   87  A    between atoms: _216  and  _218
REMARK   88  A    between atoms: _218  and  _219
REMARK   89  A    between atoms: _218  and  _221
REMARK   90  A    between atoms: _221  and  _222
REMARK   91  A    between atoms: _222  and  _223
REMARK   92  A    between atoms: _226  and  _228
REMARK   93  A    between atoms: _228  and  _229
REMARK   94  A    between atoms: _228  and  _231
REMARK   95  A    between atoms: _231  and  _232
REMARK   96  A    between atoms: _232  and  _233
REMARK   97  A    between atoms: _236  and  _238
REMARK   98  A    between atoms: _238  and  _239
REMARK   99  A    between atoms: _238  and  _241
REMARK  100  A    between atoms: _241  and  _242
REMARK  101  A    between atoms: _242  and  _243
REMARK  102  A    between atoms: _246  and  _248
REMARK  103  A    between atoms: _248  and  _249
REMARK  104  A    between atoms: _248  and  _251
REMARK  105  A    between atoms: _251  and  _252
REMARK  106  A    between atoms: _254  and  _256
REMARK  107  A    between atoms: _256  and  _257
REMARK  108  A    between atoms: _256  and  _259
REMARK  109  A    between atoms: _259  and  _260
REMARK  110  A    between atoms: _266  and  _268
REMARK  111  A    between atoms: _268  and  _269
REMARK  112  A    between atoms: _268  and  _271
REMARK  113  A    between atoms: _271  and  _272
REMARK  114  A    between atoms: _275  and  _277
REMARK  115  A    between atoms: _277  and  _278
REMARK  116  A    between atoms: _281  and  _283
REMARK  117  A    between atoms: _283  and  _284
REMARK  118  A    between atoms: _283  and  _286
REMARK  119  A    between atoms: _286  and  _287
REMARK  120  A    between atoms: _287  and  _288
REMARK  121  A    between atoms: _291  and  _293
REMARK  122  A    between atoms: _293  and  _294
REMARK  123  A    between atoms: _293  and  _296
REMARK  124  A    between atoms: _296  and  _297
REMARK  125  A    between atoms: _302  and  _303
REMARK  126  A    between atoms: _305  and  _307
REMARK  127  A    between atoms: _307  and  _308
REMARK  128  A    between atoms: _307  and  _310
REMARK  129  A    between atoms: _310  and  _311
REMARK  130  A    between atoms: _316  and  _318
REMARK  131  A    between atoms: _318  and  _319
REMARK  132  A    between atoms: _318  and  _321
REMARK  133  A    between atoms: _321  and  _322
REMARK  134  A    between atoms: _325  and  _327
REMARK  135  A    between atoms: _327  and  _328
REMARK  136  A    between atoms: _327  and  _330
REMARK  137  A    between atoms: _330  and  _331
REMARK  138  A    between atoms: _331  and  _332
REMARK  139  A    between atoms: _335  and  _337
REMARK  140  A    between atoms: _337  and  _338
REMARK                            x       y       z     vdW  Elec       q    Type
REMARK                         _______ _______ _______ _____ _____    ______ ____
ROOT
ATOM      1  CA  ARG A   2      30.204  20.884 -47.863  0.00  0.00    +0.137 C 
ENDROOT
BRANCH   1   3
ATOM      2  C   ILE A   1      30.223  23.117 -48.871  0.00  0.00    +0.238 C 
ATOM      3  N   ARG A   2      29.619  22.229 -48.071  0.00  0.00    -0.298 N 
ATOM      4  H   ARG A   2      28.732  22.486 -47.592  0.00  0.00    +0.150 HD
ATOM      5  O   ILE A   1      31.321  22.880 -49.432  0.00  0.00    -0.274 OA
BRANCH   2   6
ATOM      6  CA  ILE A   1      29.555  24.467 -49.073  0.00  0.00    +0.145 C 
BRANCH   6   7
ATOM      7  N   ILE A   1      28.081  24.538 -48.897  0.00  0.00    -0.238 NA
ATOM      8  H   ILE A   1      27.675  25.011 -48.065  0.00  0.00    +0.142 HD
ENDBRANCH   6   7
BRANCH   6   9
ATOM      9  CB  ILE A   1      30.301  25.491 -48.187  0.00  0.00    +0.025 C 
ATOM     10  CG2 ILE A   1      29.775  26.892 -48.482  0.00  0.00    +0.002 C 
BRANCH   9  11
ATOM     11  CG1 ILE A   1      30.141  25.134 -46.698  0.00  0.00    +0.002 C 
ATOM     12  CD1 ILE A   1      31.098  25.879 -45.777  0.00  0.00    +0.000 C 
ENDBRANCH   9  11
ENDBRANCH   6   9
ENDBRANCH   2   6
ENDBRANCH   1   3
BRANCH   1  13
ATOM     13  C   ARG A   2      29.572  19.814 -48.803  0.00  0.00    +0.227 C 
ATOM     14  O   ARG A   2      30.268  19.229 -49.649  0.00  0.00    -0.286 OA
ENDBRANCH   1  13
BRANCH   1  15
ATOM     15  CB  ARG A   2      30.053  20.435 -46.394  0.00  0.00    +0.031 C 
BRANCH  15  16
ATOM     16  CG  ARG A   2      30.512  21.458 -45.334  0.00  0.00    +0.045 C 
BRANCH  16  17
ATOM     17  CD  ARG A   2      30.926  20.817 -43.969  0.00  0.00    +0.174 C 
BRANCH  17  18
ATOM     18  NE  ARG A   2      31.048  21.824 -42.913  0.00  0.00    -0.265 N 
ATOM     19  CZ  ARG A   2      31.674  21.628 -41.751  0.00  0.00    +0.342 C 
ATOM     20  NH2 ARG A   2      31.664  22.570 -40.831  0.00  0.00    -0.292 N 
ATOM     21 HH21 ARG A   2      32.152  22.417 -39.925  0.00  0.00    +0.255 HD
ATOM     22 HH22 ARG A   2      31.168  23.467 -41.010  0.00  0.00    +0.255 HD
ATOM     23  NH1 ARG A   2      32.266  20.462 -41.482  0.00  0.00    -0.292 N 
ATOM     24 HH11 ARG A   2      32.750  20.322 -40.572  0.00  0.00    +0.255 HD
ATOM     25 HH12 ARG A   2      32.243  19.693 -42.182  0.00  0.00    +0.255 HD
ATOM     26  HE  ARG A   2      30.617  22.756 -43.080  0.00  0.00    +0.259 HD
ENDBRANCH  17  18
ENDBRANCH  16  17
ENDBRANCH  15  16
ENDBRANCH   1  15
TORSDOF 10
REMARK  Name = ../refined-set-2016/2ri9/2ri9_pocket.pdb
REMARK  140 active torsions:
REMARK  status: ('A' for Active; 'I' for Inactive)
REMARK    1  A    between atoms: _1  and  _3
REMARK    2  A    between atoms: _3  and  _4
REMARK    3  A    between atoms: _3  and  _6
REMARK    4  A    between atoms: _6  and  _7
REMARK    5  A    between atoms: _7  and  _8
REMARK    6  A    between atoms: _8  and  _9
REMARK    7  A    between atoms: _18  and  _20
REMARK    8  A    between atoms: _20  and  _21
REMARK    9  A    between atoms: _20  and  _23
REMARK   10  A    between atoms: _23  and  _24
REMARK   11  A    between atoms: _27  and  _29
REMARK   12  A    between atoms: _29  and  _30
REMARK   13  A    between atoms: _29  and  _32
REMARK   14  A    between atoms: _32  and  _33
REMARK   15  A    between atoms: _39  and  _41
REMARK   16  A    between atoms: _41  and  _42
REMARK   17  A    between atoms: _41  and  _44
REMARK   18  A    between atoms: _44  and  _45
REMARK   19  A    between atoms: _45  and  _46
REMARK   20  A    between atoms: _49  and  _51
REMARK   21  A    between atoms: _51  and  _52
REMARK   22  A    between atoms: _51  and  _54
REMARK   23  A    between atoms: _54  and  _55
REMARK   24  A    between atoms: _58  and  _60
REMARK   25  A    between atoms: _60  and  _61
REMARK   26  A    between atoms: _60  and  _63
REMARK   27  A    between atoms: _63  and  _64
REMARK   28  A    between atoms: _64  and  _65
REMARK   29  A    between atoms: _65  and  _66
REMARK   30  A    between atoms: _75  and  _77
REMARK   31  A    between atoms: _77  and  _78
REMARK   32  A    between atoms: _81  and  _83
REMARK   33  A    between atoms: _83  and  _84
REMARK   34  A    between atoms: _83  and  _86
REMARK   35  A    between atoms: _86  and  _87
REMARK   36  A    between atoms: _90  and  _92
REMARK   37  A    between atoms: _92  and  _93
REMARK   38  A    between atoms: _95  and  _97
REMARK   39  A    between atoms: _97  and  _98
REMARK   40  A    between atoms: _100  and  _102
REMARK   41  A    between atoms: _102  and  _103
REMARK   42  A    between atoms: _102  and  _105
REMARK   43  A    between atoms: _105  and  _106
REMARK   44  A    between atoms: _109  and  _111
REMARK   45  A    between atoms: _111  and  _112
REMARK   46  A    between atoms: _111  and  _114
REMARK   47  A    between atoms: _114  and  _115
REMARK   48  A    between atoms: _117  and  _119
REMARK   49  A    between atoms: _119  and  _120
REMARK   50  A    between atoms: _119  and  _122
REMARK   51  A    between atoms: _122  and  _123
REMARK   52  A    between atoms: _123  and  _124
REMARK   53  A    between atoms: _127  and  _129
REMARK   54  A    between atoms: _129  and  _130
REMARK   55  A    between atoms: _129  and  _132
REMARK   56  A    between atoms: _132  and  _133
REMARK   57  A    between atoms: _138  and  _139
REMARK   58  A    between atoms: _141  and  _143
REMARK   59  A    between atoms: _143  and  _144
REMARK   60  A    between atoms: _143  and  _146
REMARK   61  A    between atoms: _146  and  _147
REMARK   62  A    between atoms: _147  and  _148
REMARK   63  A    between atoms: _148  and  _149
REMARK   64  A    between atoms: _149  and  _150
REMARK   65  A    between atoms: _154  and  _156
REMARK   66  A    between atoms: _156  and  _157
REMARK   67  A    between atoms: _156  and  _159
REMARK   68  A    between atoms: _159  and  _160
REMARK   69  A    between atoms: _163  and  _165
REMARK   70  A    between atoms: _165  and  _166
REMARK   71  A    between atoms: _165  and  _168
REMARK   72  A    between atoms: _168  and  _169
REMARK   73  A    between atoms: _175  and  _177
REMARK   74  A    between atoms: _177  and  _178
REMARK   75  A    between atoms: _177  and  _180
REMARK   76  A    between atoms: _183  and  _185
REMARK   77  A    between atoms: _185  and  _186
REMARK   78  A    between atoms: _185  and  _188
REMARK   79  A    between atoms: _188  and  _189
REMARK   80  A    between atoms: _192  and  _194
REMARK   81  A    between atoms: _194  and  _195
REMARK   82  A    between atoms: _194  and  _197
REMARK   83  A    between atoms: _197  and  _198
REMARK   84  A    between atoms: _198  and  _199
REMARK   85  A    between atoms: _199  and  _200
REMARK   86  A    between atoms: _210  and  _211
REMARK   87  A    between atoms: _216  and  _218
REMARK   88  A    between atoms: _218  and  _219
REMARK   89  A    between atoms: _218  and  _221
REMARK   90  A    between atoms: _221  and  _222
REMARK   91  A    between atoms: _222  and  _223
REMARK   92  A    between atoms: _226  and  _228
REMARK   93  A    between atoms: _228  and  _229
REMARK   94  A    between atoms: _228  and  _231
REMARK   95  A    between atoms: _231  and  _232
REMARK   96  A    between atoms: _232  and  _233
REMARK   97  A    between atoms: _236  and  _238
REMARK   98  A    between atoms: _238  and  _239
REMARK   99  A    between atoms: _238  and  _241
REMARK  100  A    between atoms: _241  and  _242
REMARK  101  A    between atoms: _242  and  _243
REMARK  102  A    between atoms: _246  and  _248
REMARK  103  A    between atoms: _248  and  _249
REMARK  104  A    between atoms: _248  and  _251
REMARK  105  A    between atoms: _251  and  _252
REMARK  106  A    between atoms: _254  and  _256
REMARK  107  A    between atoms: _256  and  _257
REMARK  108  A    between atoms: _256  and  _259
REMARK  109  A    between atoms: _259  and  _260
REMARK  110  A    between atoms: _266  and  _268
REMARK  111  A    between atoms: _268  and  _269
REMARK  112  A    between atoms: _268  and  _271
REMARK  113  A    between atoms: _271  and  _272
REMARK  114  A    between atoms: _275  and  _277
REMARK  115  A    between atoms: _277  and  _278
REMARK  116  A    between atoms: _281  and  _283
REMARK  117  A    between atoms: _283  and  _284
REMARK  118  A    between atoms: _283  and  _286
REMARK  119  A    between atoms: _286  and  _287
REMARK  120  A    between atoms: _287  and  _288
REMARK  121  A    between atoms: _291  and  _293
REMARK  122  A    between atoms: _293  and  _294
REMARK  123  A    between atoms: _293  and  _296
REMARK  124  A    between atoms: _296  and  _297
REMARK  125  A    between atoms: _302  and  _303
REMARK  126  A    between atoms: _305  and  _307
REMARK  127  A    between atoms: _307  and  _308
REMARK  128  A    between atoms: _307  and  _310
REMARK  129  A    between atoms: _310  and  _311
REMARK  130  A    between atoms: _316  and  _318
REMARK  131  A    between atoms: _318  and  _319
REMARK  132  A    between atoms: _318  and  _321
REMARK  133  A    between atoms: _321  and  _322
REMARK  134  A    between atoms: _325  and  _327
REMARK  135  A    between atoms: _327  and  _328
REMARK  136  A    between atoms: _327  and  _330
REMARK  137  A    between atoms: _330  and  _331
REMARK  138  A    between atoms: _331  and  _332
REMARK  139  A    between atoms: _335  and  _337
REMARK  140  A    between atoms: _337  and  _338
REMARK                            x       y       z     vdW  Elec       q    Type
REMARK                         _______ _______ _______ _____ _____    ______ ____
ROOT
ATOM      1  CA  ALA A   1      28.750  35.408 -45.219  0.00  0.00    +0.133 C 
ATOM      2  CB  ALA A   1      29.825  34.817 -44.254  0.00  0.00    +0.027 C 
ENDROOT
BRANCH   1   3
ATOM      3  N   ALA A   1      28.110  36.574 -44.609  0.00  0.00    -0.239 NA
ATOM      4  H   ALA A   1      28.312  36.835 -43.623  0.00  0.00    +0.142 HD
ENDBRANCH   1   3
BRANCH   1   5
ATOM      5  C   ALA A   1      27.734  34.304 -45.609  0.00  0.00    +0.224 C 
ATOM      6  O   ALA A   1      27.819  33.714 -46.711  0.00  0.00    -0.287 OA
ENDBRANCH   1   5
TORSDOF 2
REMARK  Name = ../refined-set-2016/2ri9/2ri9_pocket.pdb
REMARK  140 active torsions:
REMARK  status: ('A' for Active; 'I' for Inactive)
REMARK    1  A    between atoms: _1  and  _3
REMARK    2  A    between atoms: _3  and  _4
REMARK    3  A    between atoms: _3  and  _6
REMARK    4  A    between atoms: _6  and  _7
REMARK    5  A    between atoms: _7  and  _8
REMARK    6  A    between atoms: _8  and  _9
REMARK    7  A    between atoms: _18  and  _20
REMARK    8  A    between atoms: _20  and  _21
REMARK    9  A    between atoms: _20  and  _23
REMARK   10  A    between atoms: _23  and  _24
REMARK   11  A    between atoms: _27  and  _29
REMARK   12  A    between atoms: _29  and  _30
REMARK   13  A    between atoms: _29  and  _32
REMARK   14  A    between atoms: _32  and  _33
REMARK   15  A    between atoms: _39  and  _41
REMARK   16  A    between atoms: _41  and  _42
REMARK   17  A    between atoms: _41  and  _44
REMARK   18  A    between atoms: _44  and  _45
REMARK   19  A    between atoms: _45  and  _46
REMARK   20  A    between atoms: _49  and  _51
REMARK   21  A    between atoms: _51  and  _52
REMARK   22  A    between atoms: _51  and  _54
REMARK   23  A    between atoms: _54  and  _55
REMARK   24  A    between atoms: _58  and  _60
REMARK   25  A    between atoms: _60  and  _61
REMARK   26  A    between atoms: _60  and  _63
REMARK   27  A    between atoms: _63  and  _64
REMARK   28  A    between atoms: _64  and  _65
REMARK   29  A    between atoms: _65  and  _66
REMARK   30  A    between atoms: _75  and  _77
REMARK   31  A    between atoms: _77  and  _78
REMARK   32  A    between atoms: _81  and  _83
REMARK   33  A    between atoms: _83  and  _84
REMARK   34  A    between atoms: _83  and  _86
REMARK   35  A    between atoms: _86  and  _87
REMARK   36  A    between atoms: _90  and  _92
REMARK   37  A    between atoms: _92  and  _93
REMARK   38  A    between atoms: _95  and  _97
REMARK   39  A    between atoms: _97  and  _98
REMARK   40  A    between atoms: _100  and  _102
REMARK   41  A    between atoms: _102  and  _103
REMARK   42  A    between atoms: _102  and  _105
REMARK   43  A    between atoms: _105  and  _106
REMARK   44  A    between atoms: _109  and  _111
REMARK   45  A    between atoms: _111  and  _112
REMARK   46  A    between atoms: _111  and  _114
REMARK   47  A    between atoms: _114  and  _115
REMARK   48  A    between atoms: _117  and  _119
REMARK   49  A    between atoms: _119  and  _120
REMARK   50  A    between atoms: _119  and  _122
REMARK   51  A    between atoms: _122  and  _123
REMARK   52  A    between atoms: _123  and  _124
REMARK   53  A    between atoms: _127  and  _129
REMARK   54  A    between atoms: _129  and  _130
REMARK   55  A    between atoms: _129  and  _132
REMARK   56  A    between atoms: _132  and  _133
REMARK   57  A    between atoms: _138  and  _139
REMARK   58  A    between atoms: _141  and  _143
REMARK   59  A    between atoms: _143  and  _144
REMARK   60  A    between atoms: _143  and  _146
REMARK   61  A    between atoms: _146  and  _147
REMARK   62  A    between atoms: _147  and  _148
REMARK   63  A    between atoms: _148  and  _149
REMARK   64  A    between atoms: _149  and  _150
REMARK   65  A    between atoms: _154  and  _156
REMARK   66  A    between atoms: _156  and  _157
REMARK   67  A    between atoms: _156  and  _159
REMARK   68  A    between atoms: _159  and  _160
REMARK   69  A    between atoms: _163  and  _165
REMARK   70  A    between atoms: _165  and  _166
REMARK   71  A    between atoms: _165  and  _168
REMARK   72  A    between atoms: _168  and  _169
REMARK   73  A    between atoms: _175  and  _177
REMARK   74  A    between atoms: _177  and  _178
REMARK   75  A    between atoms: _177  and  _180
REMARK   76  A    between atoms: _183  and  _185
REMARK   77  A    between atoms: _185  and  _186
REMARK   78  A    between atoms: _185  and  _188
REMARK   79  A    between atoms: _188  and  _189
REMARK   80  A    between atoms: _192  and  _194
REMARK   81  A    between atoms: _194  and  _195
REMARK   82  A    between atoms: _194  and  _197
REMARK   83  A    between atoms: _197  and  _198
REMARK   84  A    between atoms: _198  and  _199
REMARK   85  A    between atoms: _199  and  _200
REMARK   86  A    between atoms: _210  and  _211
REMARK   87  A    between atoms: _216  and  _218
REMARK   88  A    between atoms: _218  and  _219
REMARK   89  A    between atoms: _218  and  _221
REMARK   90  A    between atoms: _221  and  _222
REMARK   91  A    between atoms: _222  and  _223
REMARK   92  A    between atoms: _226  and  _228
REMARK   93  A    between atoms: _228  and  _229
REMARK   94  A    between atoms: _228  and  _231
REMARK   95  A    between atoms: _231  and  _232
REMARK   96  A    between atoms: _232  and  _233
REMARK   97  A    between atoms: _236  and  _238
REMARK   98  A    between atoms: _238  and  _239
REMARK   99  A    between atoms: _238  and  _241
REMARK  100  A    between atoms: _241  and  _242
REMARK  101  A    between atoms: _242  and  _243
REMARK  102  A    between atoms: _246  and  _248
REMARK  103  A    between atoms: _248  and  _249
REMARK  104  A    between atoms: _248  and  _251
REMARK  105  A    between atoms: _251  and  _252
REMARK  106  A    between atoms: _254  and  _256
REMARK  107  A    between atoms: _256  and  _257
REMARK  108  A    between atoms: _256  and  _259
REMARK  109  A    between atoms: _259  and  _260
REMARK  110  A    between atoms: _266  and  _268
REMARK  111  A    between atoms: _268  and  _269
REMARK  112  A    between atoms: _268  and  _271
REMARK  113  A    between atoms: _271  and  _272
REMARK  114  A    between atoms: _275  and  _277
REMARK  115  A    between atoms: _277  and  _278
REMARK  116  A    between atoms: _281  and  _283
REMARK  117  A    between atoms: _283  and  _284
REMARK  118  A    between atoms: _283  and  _286
REMARK  119  A    between atoms: _286  and  _287
REMARK  120  A    between atoms: _287  and  _288
REMARK  121  A    between atoms: _291  and  _293
REMARK  122  A    between atoms: _293  and  _294
REMARK  123  A    between atoms: _293  and  _296
REMARK  124  A    between atoms: _296  and  _297
REMARK  125  A    between atoms: _302  and  _303
REMARK  126  A    between atoms: _305  and  _307
REMARK  127  A    between atoms: _307  and  _308
REMARK  128  A    between atoms: _307  and  _310
REMARK  129  A    between atoms: _310  and  _311
REMARK  130  A    between atoms: _316  and  _318
REMARK  131  A    between atoms: _318  and  _319
REMARK  132  A    between atoms: _318  and  _321
REMARK  133  A    between atoms: _321  and  _322
REMARK  134  A    between atoms: _325  and  _327
REMARK  135  A    between atoms: _327  and  _328
REMARK  136  A    between atoms: _327  and  _330
REMARK  137  A    between atoms: _330  and  _331
REMARK  138  A    between atoms: _331  and  _332
REMARK  139  A    between atoms: _335  and  _337
REMARK  140  A    between atoms: _337  and  _338
REMARK                            x       y       z     vdW  Elec       q    Type
REMARK                         _______ _______ _______ _____ _____    ______ ____
ROOT
ATOM      1  CA  THR A   1      28.718  32.309 -50.042  0.00  0.00    +0.160 C 
ENDROOT
BRANCH   1   2
ATOM      2  N   THR A   1      27.802  33.411 -49.730  0.00  0.00    -0.237 NA
ATOM      3  H   THR A   1      27.015  33.268 -49.066  0.00  0.00    +0.142 HD
ENDBRANCH   1   2
BRANCH   1   4
ATOM      4  CB  THR A   1      29.546  31.918 -48.772  0.00  0.00    +0.134 C 
ATOM      5  CG2 THR A   1      30.717  30.972 -49.133  0.00  0.00    +0.034 C 
BRANCH   4   6
ATOM      6  OG1 THR A   1      30.115  33.097 -48.183  0.00  0.00    -0.383 OA
ATOM      7  HG1 THR A   1      30.637  32.845 -47.381  0.00  0.00    +0.210 HD
ENDBRANCH   4   6
ENDBRANCH   1   4
BRANCH   1   8
ATOM      8  C   THR A   1      27.936  31.107 -50.582  0.00  0.00    +0.227 C 
ATOM      9  O   THR A   1      28.143  29.974 -50.134  0.00  0.00    -0.287 OA
ENDBRANCH   1   8
TORSDOF 4
REMARK  Name = ../refined-set-2016/2ri9/2ri9_pocket.pdb
REMARK  140 active torsions:
REMARK  status: ('A' for Active; 'I' for Inactive)
REMARK    1  A    between atoms: _1  and  _3
REMARK    2  A    between atoms: _3  and  _4
REMARK    3  A    between atoms: _3  and  _6
REMARK    4  A    between atoms: _6  and  _7
REMARK    5  A    between atoms: _7  and  _8
REMARK    6  A    between atoms: _8  and  _9
REMARK    7  A    between atoms: _18  and  _20
REMARK    8  A    between atoms: _20  and  _21
REMARK    9  A    between atoms: _20  and  _23
REMARK   10  A    between atoms: _23  and  _24
REMARK   11  A    between atoms: _27  and  _29
REMARK   12  A    between atoms: _29  and  _30
REMARK   13  A    between atoms: _29  and  _32
REMARK   14  A    between atoms: _32  and  _33
REMARK   15  A    between atoms: _39  and  _41
REMARK   16  A    between atoms: _41  and  _42
REMARK   17  A    between atoms: _41  and  _44
REMARK   18  A    between atoms: _44  and  _45
REMARK   19  A    between atoms: _45  and  _46
REMARK   20  A    between atoms: _49  and  _51
REMARK   21  A    between atoms: _51  and  _52
REMARK   22  A    between atoms: _51  and  _54
REMARK   23  A    between atoms: _54  and  _55
REMARK   24  A    between atoms: _58  and  _60
REMARK   25  A    between atoms: _60  and  _61
REMARK   26  A    between atoms: _60  and  _63
REMARK   27  A    between atoms: _63  and  _64
REMARK   28  A    between atoms: _64  and  _65
REMARK   29  A    between atoms: _65  and  _66
REMARK   30  A    between atoms: _75  and  _77
REMARK   31  A    between atoms: _77  and  _78
REMARK   32  A    between atoms: _81  and  _83
REMARK   33  A    between atoms: _83  and  _84
REMARK   34  A    between atoms: _83  and  _86
REMARK   35  A    between atoms: _86  and  _87
REMARK   36  A    between atoms: _90  and  _92
REMARK   37  A    between atoms: _92  and  _93
REMARK   38  A    between atoms: _95  and  _97
REMARK   39  A    between atoms: _97  and  _98
REMARK   40  A    between atoms: _100  and  _102
REMARK   41  A    between atoms: _102  and  _103
REMARK   42  A    between atoms: _102  and  _105
REMARK   43  A    between atoms: _105  and  _106
REMARK   44  A    between atoms: _109  and  _111
REMARK   45  A    between atoms: _111  and  _112
REMARK   46  A    between atoms: _111  and  _114
REMARK   47  A    between atoms: _114  and  _115
REMARK   48  A    between atoms: _117  and  _119
REMARK   49  A    between atoms: _119  and  _120
REMARK   50  A    between atoms: _119  and  _122
REMARK   51  A    between atoms: _122  and  _123
REMARK   52  A    between atoms: _123  and  _124
REMARK   53  A    between atoms: _127  and  _129
REMARK   54  A    between atoms: _129  and  _130
REMARK   55  A    between atoms: _129  and  _132
REMARK   56  A    between atoms: _132  and  _133
REMARK   57  A    between atoms: _138  and  _139
REMARK   58  A    between atoms: _141  and  _143
REMARK   59  A    between atoms: _143  and  _144
REMARK   60  A    between atoms: _143  and  _146
REMARK   61  A    between atoms: _146  and  _147
REMARK   62  A    between atoms: _147  and  _148
REMARK   63  A    between atoms: _148  and  _149
REMARK   64  A    between atoms: _149  and  _150
REMARK   65  A    between atoms: _154  and  _156
REMARK   66  A    between atoms: _156  and  _157
REMARK   67  A    between atoms: _156  and  _159
REMARK   68  A    between atoms: _159  and  _160
REMARK   69  A    between atoms: _163  and  _165
REMARK   70  A    between atoms: _165  and  _166
REMARK   71  A    between atoms: _165  and  _168
REMARK   72  A    between atoms: _168  and  _169
REMARK   73  A    between atoms: _175  and  _177
REMARK   74  A    between atoms: _177  and  _178
REMARK   75  A    between atoms: _177  and  _180
REMARK   76  A    between atoms: _183  and  _185
REMARK   77  A    between atoms: _185  and  _186
REMARK   78  A    between atoms: _185  and  _188
REMARK   79  A    between atoms: _188  and  _189
REMARK   80  A    between atoms: _192  and  _194
REMARK   81  A    between atoms: _194  and  _195
REMARK   82  A    between atoms: _194  and  _197
REMARK   83  A    between atoms: _197  and  _198
REMARK   84  A    between atoms: _198  and  _199
REMARK   85  A    between atoms: _199  and  _200
REMARK   86  A    between atoms: _210  and  _211
REMARK   87  A    between atoms: _216  and  _218
REMARK   88  A    between atoms: _218  and  _219
REMARK   89  A    between atoms: _218  and  _221
REMARK   90  A    between atoms: _221  and  _222
REMARK   91  A    between atoms: _222  and  _223
REMARK   92  A    between atoms: _226  and  _228
REMARK   93  A    between atoms: _228  and  _229
REMARK   94  A    between atoms: _228  and  _231
REMARK   95  A    between atoms: _231  and  _232
REMARK   96  A    between atoms: _232  and  _233
REMARK   97  A    between atoms: _236  and  _238
REMARK   98  A    between atoms: _238  and  _239
REMARK   99  A    between atoms: _238  and  _241
REMARK  100  A    between atoms: _241  and  _242
REMARK  101  A    between atoms: _242  and  _243
REMARK  102  A    between atoms: _246  and  _248
REMARK  103  A    between atoms: _248  and  _249
REMARK  104  A    between atoms: _248  and  _251
REMARK  105  A    between atoms: _251  and  _252
REMARK  106  A    between atoms: _254  and  _256
REMARK  107  A    between atoms: _256  and  _257
REMARK  108  A    between atoms: _256  and  _259
REMARK  109  A    between atoms: _259  and  _260
REMARK  110  A    between atoms: _266  and  _268
REMARK  111  A    between atoms: _268  and  _269
REMARK  112  A    between atoms: _268  and  _271
REMARK  113  A    between atoms: _271  and  _272
REMARK  114  A    between atoms: _275  and  _277
REMARK  115  A    between atoms: _277  and  _278
REMARK  116  A    between atoms: _281  and  _283
REMARK  117  A    between atoms: _283  and  _284
REMARK  118  A    between atoms: _283  and  _286
REMARK  119  A    between atoms: _286  and  _287
REMARK  120  A    between atoms: _287  and  _288
REMARK  121  A    between atoms: _291  and  _293
REMARK  122  A    between atoms: _293  and  _294
REMARK  123  A    between atoms: _293  and  _296
REMARK  124  A    between atoms: _296  and  _297
REMARK  125  A    between atoms: _302  and  _303
REMARK  126  A    between atoms: _305  and  _307
REMARK  127  A    between atoms: _307  and  _308
REMARK  128  A    between atoms: _307  and  _310
REMARK  129  A    between atoms: _310  and  _311
REMARK  130  A    between atoms: _316  and  _318
REMARK  131  A    between atoms: _318  and  _319
REMARK  132  A    between atoms: _318  and  _321
REMARK  133  A    between atoms: _321  and  _322
REMARK  134  A    between atoms: _325  and  _327
REMARK  135  A    between atoms: _327  and  _328
REMARK  136  A    between atoms: _327  and  _330
REMARK  137  A    between atoms: _330  and  _331
REMARK  138  A    between atoms: _331  and  _332
REMARK  139  A    between atoms: _335  and  _337
REMARK  140  A    between atoms: _337  and  _338
REMARK                            x       y       z     vdW  Elec       q    Type
REMARK                         _______ _______ _______ _____ _____    ______ ____
ROOT
ATOM      1  C   GLY A   1      32.321  35.561 -39.089  0.00  0.00    +0.240 C 
ATOM      2  O   GLY A   1      32.074  36.478 -38.311  0.00  0.00    -0.274 OA
ATOM      3  N   GLY A   2      31.436  35.130 -39.979  0.00  0.00    -0.297 N 
ATOM      4  H   GLY A   2      31.667  34.313 -40.579  0.00  0.00    +0.150 HD
ENDROOT
BRANCH   1   5
ATOM      5  CA  GLY A   1      33.671  34.849 -39.060  0.00  0.00    +0.169 C 
BRANCH   5   6
ATOM      6  N   GLY A   1      34.758  35.815 -38.928  0.00  0.00    -0.236 NA
ATOM      7  H   GLY A   1      35.435  35.711 -38.145  0.00  0.00    +0.142 HD
ENDBRANCH   5   6
ENDBRANCH   1   5
BRANCH   3   8
ATOM      8  CA  GLY A   2      30.140  35.792 -40.125  0.00  0.00    +0.163 C 
BRANCH   8   9
ATOM      9  C   GLY A   2      30.158  36.720 -41.355  0.00  0.00    +0.229 C 
ATOM     10  O   GLY A   2      29.107  36.995 -41.974  0.00  0.00    -0.286 OA
ENDBRANCH   8   9
ENDBRANCH   3   8
TORSDOF 4
REMARK  Name = ../refined-set-2016/2ri9/2ri9_pocket.pdb
REMARK  140 active torsions:
REMARK  status: ('A' for Active; 'I' for Inactive)
REMARK    1  A    between atoms: _1  and  _3
REMARK    2  A    between atoms: _3  and  _4
REMARK    3  A    between atoms: _3  and  _6
REMARK    4  A    between atoms: _6  and  _7
REMARK    5  A    between atoms: _7  and  _8
REMARK    6  A    between atoms: _8  and  _9
REMARK    7  A    between atoms: _18  and  _20
REMARK    8  A    between atoms: _20  and  _21
REMARK    9  A    between atoms: _20  and  _23
REMARK   10  A    between atoms: _23  and  _24
REMARK   11  A    between atoms: _27  and  _29
REMARK   12  A    between atoms: _29  and  _30
REMARK   13  A    between atoms: _29  and  _32
REMARK   14  A    between atoms: _32  and  _33
REMARK   15  A    between atoms: _39  and  _41
REMARK   16  A    between atoms: _41  and  _42
REMARK   17  A    between atoms: _41  and  _44
REMARK   18  A    between atoms: _44  and  _45
REMARK   19  A    between atoms: _45  and  _46
REMARK   20  A    between atoms: _49  and  _51
REMARK   21  A    between atoms: _51  and  _52
REMARK   22  A    between atoms: _51  and  _54
REMARK   23  A    between atoms: _54  and  _55
REMARK   24  A    between atoms: _58  and  _60
REMARK   25  A    between atoms: _60  and  _61
REMARK   26  A    between atoms: _60  and  _63
REMARK   27  A    between atoms: _63  and  _64
REMARK   28  A    between atoms: _64  and  _65
REMARK   29  A    between atoms: _65  and  _66
REMARK   30  A    between atoms: _75  and  _77
REMARK   31  A    between atoms: _77  and  _78
REMARK   32  A    between atoms: _81  and  _83
REMARK   33  A    between atoms: _83  and  _84
REMARK   34  A    between atoms: _83  and  _86
REMARK   35  A    between atoms: _86  and  _87
REMARK   36  A    between atoms: _90  and  _92
REMARK   37  A    between atoms: _92  and  _93
REMARK   38  A    between atoms: _95  and  _97
REMARK   39  A    between atoms: _97  and  _98
REMARK   40  A    between atoms: _100  and  _102
REMARK   41  A    between atoms: _102  and  _103
REMARK   42  A    between atoms: _102  and  _105
REMARK   43  A    between atoms: _105  and  _106
REMARK   44  A    between atoms: _109  and  _111
REMARK   45  A    between atoms: _111  and  _112
REMARK   46  A    between atoms: _111  and  _114
REMARK   47  A    between atoms: _114  and  _115
REMARK   48  A    between atoms: _117  and  _119
REMARK   49  A    between atoms: _119  and  _120
REMARK   50  A    between atoms: _119  and  _122
REMARK   51  A    between atoms: _122  and  _123
REMARK   52  A    between atoms: _123  and  _124
REMARK   53  A    between atoms: _127  and  _129
REMARK   54  A    between atoms: _129  and  _130
REMARK   55  A    between atoms: _129  and  _132
REMARK   56  A    between atoms: _132  and  _133
REMARK   57  A    between atoms: _138  and  _139
REMARK   58  A    between atoms: _141  and  _143
REMARK   59  A    between atoms: _143  and  _144
REMARK   60  A    between atoms: _143  and  _146
REMARK   61  A    between atoms: _146  and  _147
REMARK   62  A    between atoms: _147  and  _148
REMARK   63  A    between atoms: _148  and  _149
REMARK   64  A    between atoms: _149  and  _150
REMARK   65  A    between atoms: _154  and  _156
REMARK   66  A    between atoms: _156  and  _157
REMARK   67  A    between atoms: _156  and  _159
REMARK   68  A    between atoms: _159  and  _160
REMARK   69  A    between atoms: _163  and  _165
REMARK   70  A    between atoms: _165  and  _166
REMARK   71  A    between atoms: _165  and  _168
REMARK   72  A    between atoms: _168  and  _169
REMARK   73  A    between atoms: _175  and  _177
REMARK   74  A    between atoms: _177  and  _178
REMARK   75  A    between atoms: _177  and  _180
REMARK   76  A    between atoms: _183  and  _185
REMARK   77  A    between atoms: _185  and  _186
REMARK   78  A    between atoms: _185  and  _188
REMARK   79  A    between atoms: _188  and  _189
REMARK   80  A    between atoms: _192  and  _194
REMARK   81  A    between atoms: _194  and  _195
REMARK   82  A    between atoms: _194  and  _197
REMARK   83  A    between atoms: _197  and  _198
REMARK   84  A    between atoms: _198  and  _199
REMARK   85  A    between atoms: _199  and  _200
REMARK   86  A    between atoms: _210  and  _211
REMARK   87  A    between atoms: _216  and  _218
REMARK   88  A    between atoms: _218  and  _219
REMARK   89  A    between atoms: _218  and  _221
REMARK   90  A    between atoms: _221  and  _222
REMARK   91  A    between atoms: _222  and  _223
REMARK   92  A    between atoms: _226  and  _228
REMARK   93  A    between atoms: _228  and  _229
REMARK   94  A    between atoms: _228  and  _231
REMARK   95  A    between atoms: _231  and  _232
REMARK   96  A    between atoms: _232  and  _233
REMARK   97  A    between atoms: _236  and  _238
REMARK   98  A    between atoms: _238  and  _239
REMARK   99  A    between atoms: _238  and  _241
REMARK  100  A    between atoms: _241  and  _242
REMARK  101  A    between atoms: _242  and  _243
REMARK  102  A    between atoms: _246  and  _248
REMARK  103  A    between atoms: _248  and  _249
REMARK  104  A    between atoms: _248  and  _251
REMARK  105  A    between atoms: _251  and  _252
REMARK  106  A    between atoms: _254  and  _256
REMARK  107  A    between atoms: _256  and  _257
REMARK  108  A    between atoms: _256  and  _259
REMARK  109  A    between atoms: _259  and  _260
REMARK  110  A    between atoms: _266  and  _268
REMARK  111  A    between atoms: _268  and  _269
REMARK  112  A    between atoms: _268  and  _271
REMARK  113  A    between atoms: _271  and  _272
REMARK  114  A    between atoms: _275  and  _277
REMARK  115  A    between atoms: _277  and  _278
REMARK  116  A    between atoms: _281  and  _283
REMARK  117  A    between atoms: _283  and  _284
REMARK  118  A    between atoms: _283  and  _286
REMARK  119  A    between atoms: _286  and  _287
REMARK  120  A    between atoms: _287  and  _288
REMARK  121  A    between atoms: _291  and  _293
REMARK  122  A    between atoms: _293  and  _294
REMARK  123  A    between atoms: _293  and  _296
REMARK  124  A    between atoms: _296  and  _297
REMARK  125  A    between atoms: _302  and  _303
REMARK  126  A    between atoms: _305  and  _307
REMARK  127  A    between atoms: _307  and  _308
REMARK  128  A    between atoms: _307  and  _310
REMARK  129  A    between atoms: _310  and  _311
REMARK  130  A    between atoms: _316  and  _318
REMARK  131  A    between atoms: _318  and  _319
REMARK  132  A    between atoms: _318  and  _321
REMARK  133  A    between atoms: _321  and  _322
REMARK  134  A    between atoms: _325  and  _327
REMARK  135  A    between atoms: _327  and  _328
REMARK  136  A    between atoms: _327  and  _330
REMARK  137  A    between atoms: _330  and  _331
REMARK  138  A    between atoms: _331  and  _332
REMARK  139  A    between atoms: _335  and  _337
REMARK  140  A    between atoms: _337  and  _338
REMARK                            x       y       z     vdW  Elec       q    Type
REMARK                         _______ _______ _______ _____ _____    ______ ____
ROOT
ATOM      1  C   ASP A   1      34.390  36.081 -45.866  0.00  0.00    +0.239 C 
ATOM      2  N   SER A   2      33.827  34.878 -46.032  0.00  0.00    -0.296 N 
ATOM      3  H   SER A   2      33.546  34.319 -45.201  0.00  0.00    +0.150 HD
ATOM      4  O   ASP A   1      34.713  36.795 -46.812  0.00  0.00    -0.274 OA
ENDROOT
BRANCH   1   5
ATOM      5  CA  ASP A   1      34.677  36.544 -44.437  0.00  0.00    +0.156 C 
BRANCH   5   6
ATOM      6  N   ASP A   1      33.630  37.099 -43.564  0.00  0.00    -0.238 NA
ATOM      7  H   ASP A   1      33.830  37.151 -42.545  0.00  0.00    +0.142 HD
ENDBRANCH   5   6
BRANCH   5   8
ATOM      8  CB  ASP A   1      35.428  35.400 -43.712  0.00  0.00    +0.140 C 
BRANCH   8   9
ATOM      9  CG  ASP A   1      34.490  34.321 -43.090  0.00  0.00    +0.367 C 
ATOM     10  OD2 ASP A   1      34.996  33.554 -42.229  0.00  0.00    -0.246 OA
ATOM     11  OD1 ASP A   1      33.283  34.215 -43.442  0.00  0.00    -0.246 OA
ENDBRANCH   8   9
ENDBRANCH   5   8
ENDBRANCH   1   5
BRANCH   2  12
ATOM     12  CA  SER A   2      33.605  34.346 -47.372  0.00  0.00    +0.166 C 
BRANCH  12  13
ATOM     13  C   SER A   2      32.775  35.177 -48.374  0.00  0.00    +0.229 C 
ATOM     14  O   SER A   2      32.789  34.882 -49.551  0.00  0.00    -0.286 OA
ENDBRANCH  12  13
BRANCH  12  15
ATOM     15  CB  SER A   2      33.087  32.892 -47.309  0.00  0.00    +0.165 C 
BRANCH  15  16
ATOM     16  OG  SER A   2      32.037  32.744 -46.367  0.00  0.00    -0.380 OA
ATOM     17  H   SER A   2      31.282  33.332 -46.621  0.00  0.00    +0.211 HD
ENDBRANCH  15  16
ENDBRANCH  12  15
ENDBRANCH   2  12
TORSDOF 8
REMARK  Name = ../refined-set-2016/2ri9/2ri9_pocket.pdb
REMARK  140 active torsions:
REMARK  status: ('A' for Active; 'I' for Inactive)
REMARK    1  A    between atoms: _1  and  _3
REMARK    2  A    between atoms: _3  and  _4
REMARK    3  A    between atoms: _3  and  _6
REMARK    4  A    between atoms: _6  and  _7
REMARK    5  A    between atoms: _7  and  _8
REMARK    6  A    between atoms: _8  and  _9
REMARK    7  A    between atoms: _18  and  _20
REMARK    8  A    between atoms: _20  and  _21
REMARK    9  A    between atoms: _20  and  _23
REMARK   10  A    between atoms: _23  and  _24
REMARK   11  A    between atoms: _27  and  _29
REMARK   12  A    between atoms: _29  and  _30
REMARK   13  A    between atoms: _29  and  _32
REMARK   14  A    between atoms: _32  and  _33
REMARK   15  A    between atoms: _39  and  _41
REMARK   16  A    between atoms: _41  and  _42
REMARK   17  A    between atoms: _41  and  _44
REMARK   18  A    between atoms: _44  and  _45
REMARK   19  A    between atoms: _45  and  _46
REMARK   20  A    between atoms: _49  and  _51
REMARK   21  A    between atoms: _51  and  _52
REMARK   22  A    between atoms: _51  and  _54
REMARK   23  A    between atoms: _54  and  _55
REMARK   24  A    between atoms: _58  and  _60
REMARK   25  A    between atoms: _60  and  _61
REMARK   26  A    between atoms: _60  and  _63
REMARK   27  A    between atoms: _63  and  _64
REMARK   28  A    between atoms: _64  and  _65
REMARK   29  A    between atoms: _65  and  _66
REMARK   30  A    between atoms: _75  and  _77
REMARK   31  A    between atoms: _77  and  _78
REMARK   32  A    between atoms: _81  and  _83
REMARK   33  A    between atoms: _83  and  _84
REMARK   34  A    between atoms: _83  and  _86
REMARK   35  A    between atoms: _86  and  _87
REMARK   36  A    between atoms: _90  and  _92
REMARK   37  A    between atoms: _92  and  _93
REMARK   38  A    between atoms: _95  and  _97
REMARK   39  A    between atoms: _97  and  _98
REMARK   40  A    between atoms: _100  and  _102
REMARK   41  A    between atoms: _102  and  _103
REMARK   42  A    between atoms: _102  and  _105
REMARK   43  A    between atoms: _105  and  _106
REMARK   44  A    between atoms: _109  and  _111
REMARK   45  A    between atoms: _111  and  _112
REMARK   46  A    between atoms: _111  and  _114
REMARK   47  A    between atoms: _114  and  _115
REMARK   48  A    between atoms: _117  and  _119
REMARK   49  A    between atoms: _119  and  _120
REMARK   50  A    between atoms: _119  and  _122
REMARK   51  A    between atoms: _122  and  _123
REMARK   52  A    between atoms: _123  and  _124
REMARK   53  A    between atoms: _127  and  _129
REMARK   54  A    between atoms: _129  and  _130
REMARK   55  A    between atoms: _129  and  _132
REMARK   56  A    between atoms: _132  and  _133
REMARK   57  A    between atoms: _138  and  _139
REMARK   58  A    between atoms: _141  and  _143
REMARK   59  A    between atoms: _143  and  _144
REMARK   60  A    between atoms: _143  and  _146
REMARK   61  A    between atoms: _146  and  _147
REMARK   62  A    between atoms: _147  and  _148
REMARK   63  A    between atoms: _148  and  _149
REMARK   64  A    between atoms: _149  and  _150
REMARK   65  A    between atoms: _154  and  _156
REMARK   66  A    between atoms: _156  and  _157
REMARK   67  A    between atoms: _156  and  _159
REMARK   68  A    between atoms: _159  and  _160
REMARK   69  A    between atoms: _163  and  _165
REMARK   70  A    between atoms: _165  and  _166
REMARK   71  A    between atoms: _165  and  _168
REMARK   72  A    between atoms: _168  and  _169
REMARK   73  A    between atoms: _175  and  _177
REMARK   74  A    between atoms: _177  and  _178
REMARK   75  A    between atoms: _177  and  _180
REMARK   76  A    between atoms: _183  and  _185
REMARK   77  A    between atoms: _185  and  _186
REMARK   78  A    between atoms: _185  and  _188
REMARK   79  A    between atoms: _188  and  _189
REMARK   80  A    between atoms: _192  and  _194
REMARK   81  A    between atoms: _194  and  _195
REMARK   82  A    between atoms: _194  and  _197
REMARK   83  A    between atoms: _197  and  _198
REMARK   84  A    between atoms: _198  and  _199
REMARK   85  A    between atoms: _199  and  _200
REMARK   86  A    between atoms: _210  and  _211
REMARK   87  A    between atoms: _216  and  _218
REMARK   88  A    between atoms: _218  and  _219
REMARK   89  A    between atoms: _218  and  _221
REMARK   90  A    between atoms: _221  and  _222
REMARK   91  A    between atoms: _222  and  _223
REMARK   92  A    between atoms: _226  and  _228
REMARK   93  A    between atoms: _228  and  _229
REMARK   94  A    between atoms: _228  and  _231
REMARK   95  A    between atoms: _231  and  _232
REMARK   96  A    between atoms: _232  and  _233
REMARK   97  A    between atoms: _236  and  _238
REMARK   98  A    between atoms: _238  and  _239
REMARK   99  A    between atoms: _238  and  _241
REMARK  100  A    between atoms: _241  and  _242
REMARK  101  A    between atoms: _242  and  _243
REMARK  102  A    between atoms: _246  and  _248
REMARK  103  A    between atoms: _248  and  _249
REMARK  104  A    between atoms: _248  and  _251
REMARK  105  A    between atoms: _251  and  _252
REMARK  106  A    between atoms: _254  and  _256
REMARK  107  A    between atoms: _256  and  _257
REMARK  108  A    between atoms: _256  and  _259
REMARK  109  A    between atoms: _259  and  _260
REMARK  110  A    between atoms: _266  and  _268
REMARK  111  A    between atoms: _268  and  _269
REMARK  112  A    between atoms: _268  and  _271
REMARK  113  A    between atoms: _271  and  _272
REMARK  114  A    between atoms: _275  and  _277
REMARK  115  A    between atoms: _277  and  _278
REMARK  116  A    between atoms: _281  and  _283
REMARK  117  A    between atoms: _283  and  _284
REMARK  118  A    between atoms: _283  and  _286
REMARK  119  A    between atoms: _286  and  _287
REMARK  120  A    between atoms: _287  and  _288
REMARK  121  A    between atoms: _291  and  _293
REMARK  122  A    between atoms: _293  and  _294
REMARK  123  A    between atoms: _293  and  _296
REMARK  124  A    between atoms: _296  and  _297
REMARK  125  A    between atoms: _302  and  _303
REMARK  126  A    between atoms: _305  and  _307
REMARK  127  A    between atoms: _307  and  _308
REMARK  128  A    between atoms: _307  and  _310
REMARK  129  A    between atoms: _310  and  _311
REMARK  130  A    between atoms: _316  and  _318
REMARK  131  A    between atoms: _318  and  _319
REMARK  132  A    between atoms: _318  and  _321
REMARK  133  A    between atoms: _321  and  _322
REMARK  134  A    between atoms: _325  and  _327
REMARK  135  A    between atoms: _327  and  _328
REMARK  136  A    between atoms: _327  and  _330
REMARK  137  A    between atoms: _330  and  _331
REMARK  138  A    between atoms: _331  and  _332
REMARK  139  A    between atoms: _335  and  _337
REMARK  140  A    between atoms: _337  and  _338
REMARK                            x       y       z     vdW  Elec       q    Type
REMARK                         _______ _______ _______ _____ _____    ______ ____
ROOT
ATOM      1  C   GLU A   1      35.581  35.269 -52.227  0.00  0.00    +0.238 C 
ATOM      2  N   TYR A   2      34.248  35.117 -52.207  0.00  0.00    -0.298 N 
ATOM      3  H   TYR A   2      33.735  35.251 -51.312  0.00  0.00    +0.150 HD
ATOM      4  O   GLU A   1      36.240  35.137 -53.259  0.00  0.00    -0.274 OA
ENDROOT
BRANCH   1   5
ATOM      5  CA  GLU A   1      36.268  35.613 -50.881  0.00  0.00    +0.145 C 
BRANCH   5   6
ATOM      6  N   GLU A   1      35.554  36.715 -50.219  0.00  0.00    -0.238 NA
ATOM      7  H   GLU A   1      35.183  36.560 -49.260  0.00  0.00    +0.142 HD
ENDBRANCH   5   6
BRANCH   5   8
ATOM      8  CB  GLU A   1      36.241  34.384 -49.958  0.00  0.00    +0.038 C 
BRANCH   8   9
ATOM      9  CG  GLU A   1      37.073  33.170 -50.414  0.00  0.00    +0.116 C 
BRANCH   9  10
ATOM     10  CD  GLU A   1      36.703  31.877 -49.674  0.00  0.00    +0.365 C 
ATOM     11  OE2 GLU A   1      36.130  31.967 -48.548  0.00  0.00    -0.246 OA
ATOM     12  OE1 GLU A   1      37.012  30.765 -50.190  0.00  0.00    -0.246 OA
ENDBRANCH   9  10
ENDBRANCH   8   9
ENDBRANCH   5   8
ENDBRANCH   1   5
BRANCH   2  13
ATOM     13  CA  TYR A   2      33.497  34.766 -53.417  0.00  0.00    +0.141 C 
BRANCH  13  14
ATOM     14  C   TYR A   2      33.354  35.843 -54.499  0.00  0.00    +0.227 C 
ATOM     15  O   TYR A   2      33.054  35.508 -55.636  0.00  0.00    -0.286 OA
ENDBRANCH  13  14
BRANCH  13  16
ATOM     16  CB  TYR A   2      32.116  34.204 -53.032  0.00  0.00    +0.054 C 
BRANCH  16  17
ATOM     17  CG  TYR A   2      32.135  32.721 -52.722  0.00  0.00    -0.020 A 
ATOM     18  CD2 TYR A   2      33.308  32.091 -52.273  0.00  0.00    -0.001 A 
ATOM     19  CE2 TYR A   2      33.334  30.696 -51.984  0.00  0.00    +0.036 A 
ATOM     20  CZ  TYR A   2      32.165  29.939 -52.147  0.00  0.00    +0.134 A 
ATOM     21  CE1 TYR A   2      30.987  30.542 -52.598  0.00  0.00    +0.036 A 
ATOM     22  CD1 TYR A   2      30.976  31.928 -52.878  0.00  0.00    -0.001 A 
BRANCH  20  23
ATOM     23  OH  TYR A   2      32.163  28.596 -51.815  0.00  0.00    -0.506 OA
ATOM     24  HH  TYR A   2      31.905  28.062 -52.607  0.00  0.00    +0.292 HD
ENDBRANCH  20  23
ENDBRANCH  16  17
ENDBRANCH  13  16
ENDBRANCH   2  13
TORSDOF 10
REMARK  Name = ../refined-set-2016/2ri9/2ri9_pocket.pdb
REMARK  140 active torsions:
REMARK  status: ('A' for Active; 'I' for Inactive)
REMARK    1  A    between atoms: _1  and  _3
REMARK    2  A    between atoms: _3  and  _4
REMARK    3  A    between atoms: _3  and  _6
REMARK    4  A    between atoms: _6  and  _7
REMARK    5  A    between atoms: _7  and  _8
REMARK    6  A    between atoms: _8  and  _9
REMARK    7  A    between atoms: _18  and  _20
REMARK    8  A    between atoms: _20  and  _21
REMARK    9  A    between atoms: _20  and  _23
REMARK   10  A    between atoms: _23  and  _24
REMARK   11  A    between atoms: _27  and  _29
REMARK   12  A    between atoms: _29  and  _30
REMARK   13  A    between atoms: _29  and  _32
REMARK   14  A    between atoms: _32  and  _33
REMARK   15  A    between atoms: _39  and  _41
REMARK   16  A    between atoms: _41  and  _42
REMARK   17  A    between atoms: _41  and  _44
REMARK   18  A    between atoms: _44  and  _45
REMARK   19  A    between atoms: _45  and  _46
REMARK   20  A    between atoms: _49  and  _51
REMARK   21  A    between atoms: _51  and  _52
REMARK   22  A    between atoms: _51  and  _54
REMARK   23  A    between atoms: _54  and  _55
REMARK   24  A    between atoms: _58  and  _60
REMARK   25  A    between atoms: _60  and  _61
REMARK   26  A    between atoms: _60  and  _63
REMARK   27  A    between atoms: _63  and  _64
REMARK   28  A    between atoms: _64  and  _65
REMARK   29  A    between atoms: _65  and  _66
REMARK   30  A    between atoms: _75  and  _77
REMARK   31  A    between atoms: _77  and  _78
REMARK   32  A    between atoms: _81  and  _83
REMARK   33  A    between atoms: _83  and  _84
REMARK   34  A    between atoms: _83  and  _86
REMARK   35  A    between atoms: _86  and  _87
REMARK   36  A    between atoms: _90  and  _92
REMARK   37  A    between atoms: _92  and  _93
REMARK   38  A    between atoms: _95  and  _97
REMARK   39  A    between atoms: _97  and  _98
REMARK   40  A    between atoms: _100  and  _102
REMARK   41  A    between atoms: _102  and  _103
REMARK   42  A    between atoms: _102  and  _105
REMARK   43  A    between atoms: _105  and  _106
REMARK   44  A    between atoms: _109  and  _111
REMARK   45  A    between atoms: _111  and  _112
REMARK   46  A    between atoms: _111  and  _114
REMARK   47  A    between atoms: _114  and  _115
REMARK   48  A    between atoms: _117  and  _119
REMARK   49  A    between atoms: _119  and  _120
REMARK   50  A    between atoms: _119  and  _122
REMARK   51  A    between atoms: _122  and  _123
REMARK   52  A    between atoms: _123  and  _124
REMARK   53  A    between atoms: _127  and  _129
REMARK   54  A    between atoms: _129  and  _130
REMARK   55  A    between atoms: _129  and  _132
REMARK   56  A    between atoms: _132  and  _133
REMARK   57  A    between atoms: _138  and  _139
REMARK   58  A    between atoms: _141  and  _143
REMARK   59  A    between atoms: _143  and  _144
REMARK   60  A    between atoms: _143  and  _146
REMARK   61  A    between atoms: _146  and  _147
REMARK   62  A    between atoms: _147  and  _148
REMARK   63  A    between atoms: _148  and  _149
REMARK   64  A    between atoms: _149  and  _150
REMARK   65  A    between atoms: _154  and  _156
REMARK   66  A    between atoms: _156  and  _157
REMARK   67  A    between atoms: _156  and  _159
REMARK   68  A    between atoms: _159  and  _160
REMARK   69  A    between atoms: _163  and  _165
REMARK   70  A    between atoms: _165  and  _166
REMARK   71  A    between atoms: _165  and  _168
REMARK   72  A    between atoms: _168  and  _169
REMARK   73  A    between atoms: _175  and  _177
REMARK   74  A    between atoms: _177  and  _178
REMARK   75  A    between atoms: _177  and  _180
REMARK   76  A    between atoms: _183  and  _185
REMARK   77  A    between atoms: _185  and  _186
REMARK   78  A    between atoms: _185  and  _188
REMARK   79  A    between atoms: _188  and  _189
REMARK   80  A    between atoms: _192  and  _194
REMARK   81  A    between atoms: _194  and  _195
REMARK   82  A    between atoms: _194  and  _197
REMARK   83  A    between atoms: _197  and  _198
REMARK   84  A    between atoms: _198  and  _199
REMARK   85  A    between atoms: _199  and  _200
REMARK   86  A    between atoms: _210  and  _211
REMARK   87  A    between atoms: _216  and  _218
REMARK   88  A    between atoms: _218  and  _219
REMARK   89  A    between atoms: _218  and  _221
REMARK   90  A    between atoms: _221  and  _222
REMARK   91  A    between atoms: _222  and  _223
REMARK   92  A    between atoms: _226  and  _228
REMARK   93  A    between atoms: _228  and  _229
REMARK   94  A    between atoms: _228  and  _231
REMARK   95  A    between atoms: _231  and  _232
REMARK   96  A    between atoms: _232  and  _233
REMARK   97  A    between atoms: _236  and  _238
REMARK   98  A    between atoms: _238  and  _239
REMARK   99  A    between atoms: _238  and  _241
REMARK  100  A    between atoms: _241  and  _242
REMARK  101  A    between atoms: _242  and  _243
REMARK  102  A    between atoms: _246  and  _248
REMARK  103  A    between atoms: _248  and  _249
REMARK  104  A    between atoms: _248  and  _251
REMARK  105  A    between atoms: _251  and  _252
REMARK  106  A    between atoms: _254  and  _256
REMARK  107  A    between atoms: _256  and  _257
REMARK  108  A    between atoms: _256  and  _259
REMARK  109  A    between atoms: _259  and  _260
REMARK  110  A    between atoms: _266  and  _268
REMARK  111  A    between atoms: _268  and  _269
REMARK  112  A    between atoms: _268  and  _271
REMARK  113  A    between atoms: _271  and  _272
REMARK  114  A    between atoms: _275  and  _277
REMARK  115  A    between atoms: _277  and  _278
REMARK  116  A    between atoms: _281  and  _283
REMARK  117  A    between atoms: _283  and  _284
REMARK  118  A    between atoms: _283  and  _286
REMARK  119  A    between atoms: _286  and  _287
REMARK  120  A    between atoms: _287  and  _288
REMARK  121  A    between atoms: _291  and  _293
REMARK  122  A    between atoms: _293  and  _294
REMARK  123  A    between atoms: _293  and  _296
REMARK  124  A    between atoms: _296  and  _297
REMARK  125  A    between atoms: _302  and  _303
REMARK  126  A    between atoms: _305  and  _307
REMARK  127  A    between atoms: _307  and  _308
REMARK  128  A    between atoms: _307  and  _310
REMARK  129  A    between atoms: _310  and  _311
REMARK  130  A    between atoms: _316  and  _318
REMARK  131  A    between atoms: _318  and  _319
REMARK  132  A    between atoms: _318  and  _321
REMARK  133  A    between atoms: _321  and  _322
REMARK  134  A    between atoms: _325  and  _327
REMARK  135  A    between atoms: _327  and  _328
REMARK  136  A    between atoms: _327  and  _330
REMARK  137  A    between atoms: _330  and  _331
REMARK  138  A    between atoms: _331  and  _332
REMARK  139  A    between atoms: _335  and  _337
REMARK  140  A    between atoms: _337  and  _338
REMARK                            x       y       z     vdW  Elec       q    Type
REMARK                         _______ _______ _______ _____ _____    ______ ____
ROOT
ATOM      1  CG  LYS A   1      37.304  32.547 -55.170  0.00  0.00    -0.000 C 
ENDROOT
BRANCH   1   2
ATOM      2  CB  LYS A   1      36.040  32.818 -56.068  0.00  0.00    +0.025 C 
BRANCH   2   3
ATOM      3  CA  LYS A   1      36.282  33.827 -57.228  0.00  0.00    +0.133 C 
BRANCH   3   4
ATOM      4  N   LYS A   1      36.395  35.194 -56.699  0.00  0.00    -0.239 NA
ATOM      5  H   LYS A   1      36.183  35.385 -55.699  0.00  0.00    +0.142 HD
ENDBRANCH   3   4
BRANCH   3   6
ATOM      6  C   LYS A   1      35.190  33.697 -58.321  0.00  0.00    +0.224 C 
ATOM      7  O   LYS A   1      35.333  32.893 -59.246  0.00  0.00    -0.287 OA
ENDBRANCH   3   6
ENDBRANCH   2   3
ENDBRANCH   1   2
BRANCH   1   8
ATOM      8  CD  LYS A   1      37.045  31.533 -54.028  0.00  0.00    -0.024 C 
BRANCH   8   9
ATOM      9  CE  LYS A   1      38.360  31.002 -53.387  0.00  0.00    -0.086 C 
BRANCH   9  10
ATOM     10  NZ  LYS A   1      38.157  29.907 -52.356  0.00  0.00    +0.380 N 
ATOM     11  HZ1 LYS A   1      37.565  30.268 -51.581  0.00  0.00    -0.089 HD
ATOM     12  HZ2 LYS A   1      39.080  29.611 -51.980  0.00  0.00    -0.089 HD
ATOM     13  HZ3 LYS A   1      37.687  29.094 -52.803  0.00  0.00    -0.089 HD
ENDBRANCH   9  10
ENDBRANCH   8   9
ENDBRANCH   1   8
TORSDOF 7
REMARK  Name = ../refined-set-2016/2ri9/2ri9_pocket.pdb
REMARK  140 active torsions:
REMARK  status: ('A' for Active; 'I' for Inactive)
REMARK    1  A    between atoms: _1  and  _3
REMARK    2  A    between atoms: _3  and  _4
REMARK    3  A    between atoms: _3  and  _6
REMARK    4  A    between atoms: _6  and  _7
REMARK    5  A    between atoms: _7  and  _8
REMARK    6  A    between atoms: _8  and  _9
REMARK    7  A    between atoms: _18  and  _20
REMARK    8  A    between atoms: _20  and  _21
REMARK    9  A    between atoms: _20  and  _23
REMARK   10  A    between atoms: _23  and  _24
REMARK   11  A    between atoms: _27  and  _29
REMARK   12  A    between atoms: _29  and  _30
REMARK   13  A    between atoms: _29  and  _32
REMARK   14  A    between atoms: _32  and  _33
REMARK   15  A    between atoms: _39  and  _41
REMARK   16  A    between atoms: _41  and  _42
REMARK   17  A    between atoms: _41  and  _44
REMARK   18  A    between atoms: _44  and  _45
REMARK   19  A    between atoms: _45  and  _46
REMARK   20  A    between atoms: _49  and  _51
REMARK   21  A    between atoms: _51  and  _52
REMARK   22  A    between atoms: _51  and  _54
REMARK   23  A    between atoms: _54  and  _55
REMARK   24  A    between atoms: _58  and  _60
REMARK   25  A    between atoms: _60  and  _61
REMARK   26  A    between atoms: _60  and  _63
REMARK   27  A    between atoms: _63  and  _64
REMARK   28  A    between atoms: _64  and  _65
REMARK   29  A    between atoms: _65  and  _66
REMARK   30  A    between atoms: _75  and  _77
REMARK   31  A    between atoms: _77  and  _78
REMARK   32  A    between atoms: _81  and  _83
REMARK   33  A    between atoms: _83  and  _84
REMARK   34  A    between atoms: _83  and  _86
REMARK   35  A    between atoms: _86  and  _87
REMARK   36  A    between atoms: _90  and  _92
REMARK   37  A    between atoms: _92  and  _93
REMARK   38  A    between atoms: _95  and  _97
REMARK   39  A    between atoms: _97  and  _98
REMARK   40  A    between atoms: _100  and  _102
REMARK   41  A    between atoms: _102  and  _103
REMARK   42  A    between atoms: _102  and  _105
REMARK   43  A    between atoms: _105  and  _106
REMARK   44  A    between atoms: _109  and  _111
REMARK   45  A    between atoms: _111  and  _112
REMARK   46  A    between atoms: _111  and  _114
REMARK   47  A    between atoms: _114  and  _115
REMARK   48  A    between atoms: _117  and  _119
REMARK   49  A    between atoms: _119  and  _120
REMARK   50  A    between atoms: _119  and  _122
REMARK   51  A    between atoms: _122  and  _123
REMARK   52  A    between atoms: _123  and  _124
REMARK   53  A    between atoms: _127  and  _129
REMARK   54  A    between atoms: _129  and  _130
REMARK   55  A    between atoms: _129  and  _132
REMARK   56  A    between atoms: _132  and  _133
REMARK   57  A    between atoms: _138  and  _139
REMARK   58  A    between atoms: _141  and  _143
REMARK   59  A    between atoms: _143  and  _144
REMARK   60  A    between atoms: _143  and  _146
REMARK   61  A    between atoms: _146  and  _147
REMARK   62  A    between atoms: _147  and  _148
REMARK   63  A    between atoms: _148  and  _149
REMARK   64  A    between atoms: _149  and  _150
REMARK   65  A    between atoms: _154  and  _156
REMARK   66  A    between atoms: _156  and  _157
REMARK   67  A    between atoms: _156  and  _159
REMARK   68  A    between atoms: _159  and  _160
REMARK   69  A    between atoms: _163  and  _165
REMARK   70  A    between atoms: _165  and  _166
REMARK   71  A    between atoms: _165  and  _168
REMARK   72  A    between atoms: _168  and  _169
REMARK   73  A    between atoms: _175  and  _177
REMARK   74  A    between atoms: _177  and  _178
REMARK   75  A    between atoms: _177  and  _180
REMARK   76  A    between atoms: _183  and  _185
REMARK   77  A    between atoms: _185  and  _186
REMARK   78  A    between atoms: _185  and  _188
REMARK   79  A    between atoms: _188  and  _189
REMARK   80  A    between atoms: _192  and  _194
REMARK   81  A    between atoms: _194  and  _195
REMARK   82  A    between atoms: _194  and  _197
REMARK   83  A    between atoms: _197  and  _198
REMARK   84  A    between atoms: _198  and  _199
REMARK   85  A    between atoms: _199  and  _200
REMARK   86  A    between atoms: _210  and  _211
REMARK   87  A    between atoms: _216  and  _218
REMARK   88  A    between atoms: _218  and  _219
REMARK   89  A    between atoms: _218  and  _221
REMARK   90  A    between atoms: _221  and  _222
REMARK   91  A    between atoms: _222  and  _223
REMARK   92  A    between atoms: _226  and  _228
REMARK   93  A    between atoms: _228  and  _229
REMARK   94  A    between atoms: _228  and  _231
REMARK   95  A    between atoms: _231  and  _232
REMARK   96  A    between atoms: _232  and  _233
REMARK   97  A    between atoms: _236  and  _238
REMARK   98  A    between atoms: _238  and  _239
REMARK   99  A    between atoms: _238  and  _241
REMARK  100  A    between atoms: _241  and  _242
REMARK  101  A    between atoms: _242  and  _243
REMARK  102  A    between atoms: _246  and  _248
REMARK  103  A    between atoms: _248  and  _249
REMARK  104  A    between atoms: _248  and  _251
REMARK  105  A    between atoms: _251  and  _252
REMARK  106  A    between atoms: _254  and  _256
REMARK  107  A    between atoms: _256  and  _257
REMARK  108  A    between atoms: _256  and  _259
REMARK  109  A    between atoms: _259  and  _260
REMARK  110  A    between atoms: _266  and  _268
REMARK  111  A    between atoms: _268  and  _269
REMARK  112  A    between atoms: _268  and  _271
REMARK  113  A    between atoms: _271  and  _272
REMARK  114  A    between atoms: _275  and  _277
REMARK  115  A    between atoms: _277  and  _278
REMARK  116  A    between atoms: _281  and  _283
REMARK  117  A    between atoms: _283  and  _284
REMARK  118  A    between atoms: _283  and  _286
REMARK  119  A    between atoms: _286  and  _287
REMARK  120  A    between atoms: _287  and  _288
REMARK  121  A    between atoms: _291  and  _293
REMARK  122  A    between atoms: _293  and  _294
REMARK  123  A    between atoms: _293  and  _296
REMARK  124  A    between atoms: _296  and  _297
REMARK  125  A    between atoms: _302  and  _303
REMARK  126  A    between atoms: _305  and  _307
REMARK  127  A    between atoms: _307  and  _308
REMARK  128  A    between atoms: _307  and  _310
REMARK  129  A    between atoms: _310  and  _311
REMARK  130  A    between atoms: _316  and  _318
REMARK  131  A    between atoms: _318  and  _319
REMARK  132  A    between atoms: _318  and  _321
REMARK  133  A    between atoms: _321  and  _322
REMARK  134  A    between atoms: _325  and  _327
REMARK  135  A    between atoms: _327  and  _328
REMARK  136  A    between atoms: _327  and  _330
REMARK  137  A    between atoms: _330  and  _331
REMARK  138  A    between atoms: _331  and  _332
REMARK  139  A    between atoms: _335  and  _337
REMARK  140  A    between atoms: _337  and  _338
REMARK                            x       y       z     vdW  Elec       q    Type
REMARK                         _______ _______ _______ _____ _____    ______ ____
ROOT
ATOM      1  CA  LEU A   1      39.279  32.158 -39.637  0.00  0.00    +0.133 C 
ENDROOT
BRANCH   1   2
ATOM      2  N   LEU A   1      40.197  32.082 -38.489  0.00  0.00    -0.239 NA
ATOM      3  H   LEU A   1      39.790  32.049 -37.533  0.00  0.00    +0.142 HD
ENDBRANCH   1   2
BRANCH   1   4
ATOM      4  C   LEU A   1      39.654  33.271 -40.631  0.00  0.00    +0.224 C 
ATOM      5  O   LEU A   1      39.566  33.104 -41.871  0.00  0.00    -0.287 OA
ENDBRANCH   1   4
BRANCH   1   6
ATOM      6  CB  LEU A   1      37.844  32.461 -39.156  0.00  0.00    +0.025 C 
BRANCH   6   7
ATOM      7  CG  LEU A   1      37.013  31.255 -38.774  0.00  0.00    +0.002 C 
ATOM      8  CD2 LEU A   1      35.666  31.639 -38.185  0.00  0.00    +0.000 C 
ATOM      9  CD1 LEU A   1      36.824  30.478 -40.050  0.00  0.00    +0.000 C 
ENDBRANCH   6   7
ENDBRANCH   1   6
TORSDOF 4
REMARK  Name = ../refined-set-2016/2ri9/2ri9_pocket.pdb
REMARK  140 active torsions:
REMARK  status: ('A' for Active; 'I' for Inactive)
REMARK    1  A    between atoms: _1  and  _3
REMARK    2  A    between atoms: _3  and  _4
REMARK    3  A    between atoms: _3  and  _6
REMARK    4  A    between atoms: _6  and  _7
REMARK    5  A    between atoms: _7  and  _8
REMARK    6  A    between atoms: _8  and  _9
REMARK    7  A    between atoms: _18  and  _20
REMARK    8  A    between atoms: _20  and  _21
REMARK    9  A    between atoms: _20  and  _23
REMARK   10  A    between atoms: _23  and  _24
REMARK   11  A    between atoms: _27  and  _29
REMARK   12  A    between atoms: _29  and  _30
REMARK   13  A    between atoms: _29  and  _32
REMARK   14  A    between atoms: _32  and  _33
REMARK   15  A    between atoms: _39  and  _41
REMARK   16  A    between atoms: _41  and  _42
REMARK   17  A    between atoms: _41  and  _44
REMARK   18  A    between atoms: _44  and  _45
REMARK   19  A    between atoms: _45  and  _46
REMARK   20  A    between atoms: _49  and  _51
REMARK   21  A    between atoms: _51  and  _52
REMARK   22  A    between atoms: _51  and  _54
REMARK   23  A    between atoms: _54  and  _55
REMARK   24  A    between atoms: _58  and  _60
REMARK   25  A    between atoms: _60  and  _61
REMARK   26  A    between atoms: _60  and  _63
REMARK   27  A    between atoms: _63  and  _64
REMARK   28  A    between atoms: _64  and  _65
REMARK   29  A    between atoms: _65  and  _66
REMARK   30  A    between atoms: _75  and  _77
REMARK   31  A    between atoms: _77  and  _78
REMARK   32  A    between atoms: _81  and  _83
REMARK   33  A    between atoms: _83  and  _84
REMARK   34  A    between atoms: _83  and  _86
REMARK   35  A    between atoms: _86  and  _87
REMARK   36  A    between atoms: _90  and  _92
REMARK   37  A    between atoms: _92  and  _93
REMARK   38  A    between atoms: _95  and  _97
REMARK   39  A    between atoms: _97  and  _98
REMARK   40  A    between atoms: _100  and  _102
REMARK   41  A    between atoms: _102  and  _103
REMARK   42  A    between atoms: _102  and  _105
REMARK   43  A    between atoms: _105  and  _106
REMARK   44  A    between atoms: _109  and  _111
REMARK   45  A    between atoms: _111  and  _112
REMARK   46  A    between atoms: _111  and  _114
REMARK   47  A    between atoms: _114  and  _115
REMARK   48  A    between atoms: _117  and  _119
REMARK   49  A    between atoms: _119  and  _120
REMARK   50  A    between atoms: _119  and  _122
REMARK   51  A    between atoms: _122  and  _123
REMARK   52  A    between atoms: _123  and  _124
REMARK   53  A    between atoms: _127  and  _129
REMARK   54  A    between atoms: _129  and  _130
REMARK   55  A    between atoms: _129  and  _132
REMARK   56  A    between atoms: _132  and  _133
REMARK   57  A    between atoms: _138  and  _139
REMARK   58  A    between atoms: _141  and  _143
REMARK   59  A    between atoms: _143  and  _144
REMARK   60  A    between atoms: _143  and  _146
REMARK   61  A    between atoms: _146  and  _147
REMARK   62  A    between atoms: _147  and  _148
REMARK   63  A    between atoms: _148  and  _149
REMARK   64  A    between atoms: _149  and  _150
REMARK   65  A    between atoms: _154  and  _156
REMARK   66  A    between atoms: _156  and  _157
REMARK   67  A    between atoms: _156  and  _159
REMARK   68  A    between atoms: _159  and  _160
REMARK   69  A    between atoms: _163  and  _165
REMARK   70  A    between atoms: _165  and  _166
REMARK   71  A    between atoms: _165  and  _168
REMARK   72  A    between atoms: _168  and  _169
REMARK   73  A    between atoms: _175  and  _177
REMARK   74  A    between atoms: _177  and  _178
REMARK   75  A    between atoms: _177  and  _180
REMARK   76  A    between atoms: _183  and  _185
REMARK   77  A    between atoms: _185  and  _186
REMARK   78  A    between atoms: _185  and  _188
REMARK   79  A    between atoms: _188  and  _189
REMARK   80  A    between atoms: _192  and  _194
REMARK   81  A    between atoms: _194  and  _195
REMARK   82  A    between atoms: _194  and  _197
REMARK   83  A    between atoms: _197  and  _198
REMARK   84  A    between atoms: _198  and  _199
REMARK   85  A    between atoms: _199  and  _200
REMARK   86  A    between atoms: _210  and  _211
REMARK   87  A    between atoms: _216  and  _218
REMARK   88  A    between atoms: _218  and  _219
REMARK   89  A    between atoms: _218  and  _221
REMARK   90  A    between atoms: _221  and  _222
REMARK   91  A    between atoms: _222  and  _223
REMARK   92  A    between atoms: _226  and  _228
REMARK   93  A    between atoms: _228  and  _229
REMARK   94  A    between atoms: _228  and  _231
REMARK   95  A    between atoms: _231  and  _232
REMARK   96  A    between atoms: _232  and  _233
REMARK   97  A    between atoms: _236  and  _238
REMARK   98  A    between atoms: _238  and  _239
REMARK   99  A    between atoms: _238  and  _241
REMARK  100  A    between atoms: _241  and  _242
REMARK  101  A    between atoms: _242  and  _243
REMARK  102  A    between atoms: _246  and  _248
REMARK  103  A    between atoms: _248  and  _249
REMARK  104  A    between atoms: _248  and  _251
REMARK  105  A    between atoms: _251  and  _252
REMARK  106  A    between atoms: _254  and  _256
REMARK  107  A    between atoms: _256  and  _257
REMARK  108  A    between atoms: _256  and  _259
REMARK  109  A    between atoms: _259  and  _260
REMARK  110  A    between atoms: _266  and  _268
REMARK  111  A    between atoms: _268  and  _269
REMARK  112  A    between atoms: _268  and  _271
REMARK  113  A    between atoms: _271  and  _272
REMARK  114  A    between atoms: _275  and  _277
REMARK  115  A    between atoms: _277  and  _278
REMARK  116  A    between atoms: _281  and  _283
REMARK  117  A    between atoms: _283  and  _284
REMARK  118  A    between atoms: _283  and  _286
REMARK  119  A    between atoms: _286  and  _287
REMARK  120  A    between atoms: _287  and  _288
REMARK  121  A    between atoms: _291  and  _293
REMARK  122  A    between atoms: _293  and  _294
REMARK  123  A    between atoms: _293  and  _296
REMARK  124  A    between atoms: _296  and  _297
REMARK  125  A    between atoms: _302  and  _303
REMARK  126  A    between atoms: _305  and  _307
REMARK  127  A    between atoms: _307  and  _308
REMARK  128  A    between atoms: _307  and  _310
REMARK  129  A    between atoms: _310  and  _311
REMARK  130  A    between atoms: _316  and  _318
REMARK  131  A    between atoms: _318  and  _319
REMARK  132  A    between atoms: _318  and  _321
REMARK  133  A    between atoms: _321  and  _322
REMARK  134  A    between atoms: _325  and  _327
REMARK  135  A    between atoms: _327  and  _328
REMARK  136  A    between atoms: _327  and  _330
REMARK  137  A    between atoms: _330  and  _331
REMARK  138  A    between atoms: _331  and  _332
REMARK  139  A    between atoms: _335  and  _337
REMARK  140  A    between atoms: _337  and  _338
REMARK                            x       y       z     vdW  Elec       q    Type
REMARK                         _______ _______ _______ _____ _____    ______ ____
ROOT
ATOM      1  CB  PHE A   1      40.548  32.874 -45.786  0.00  0.00    +0.051 C 
ENDROOT
BRANCH   1   2
ATOM      2  CG  PHE A   1      39.695  34.124 -45.974  0.00  0.00    -0.020 A 
ATOM      3  CD2 PHE A   1      39.270  34.842 -44.871  0.00  0.00    -0.004 A 
ATOM      4  CE2 PHE A   1      38.525  36.025 -45.006  0.00  0.00    -0.000 A 
ATOM      5  CZ  PHE A   1      38.197  36.504 -46.282  0.00  0.00    -0.000 A 
ATOM      6  CE1 PHE A   1      38.617  35.796 -47.419  0.00  0.00    -0.000 A 
ATOM      7  CD1 PHE A   1      39.370  34.597 -47.253  0.00  0.00    -0.004 A 
ENDBRANCH   1   2
BRANCH   1   8
ATOM      8  CA  PHE A   1      42.037  33.179 -45.533  0.00  0.00    +0.137 C 
BRANCH   8   9
ATOM      9  N   PHE A   1      42.291  33.538 -44.128  0.00  0.00    -0.239 NA
ATOM     10  H   PHE A   1      41.492  33.635 -43.470  0.00  0.00    +0.142 HD
ENDBRANCH   8   9
BRANCH   8  11
ATOM     11  C   PHE A   1      42.349  34.466 -46.320  0.00  0.00    +0.224 C 
ATOM     12  O   PHE A   1      42.517  34.450 -47.557  0.00  0.00    -0.287 OA
ENDBRANCH   8  11
ENDBRANCH   1   8
TORSDOF 4
REMARK  Name = ../refined-set-2016/2ri9/2ri9_pocket.pdb
REMARK  140 active torsions:
REMARK  status: ('A' for Active; 'I' for Inactive)
REMARK    1  A    between atoms: _1  and  _3
REMARK    2  A    between atoms: _3  and  _4
REMARK    3  A    between atoms: _3  and  _6
REMARK    4  A    between atoms: _6  and  _7
REMARK    5  A    between atoms: _7  and  _8
REMARK    6  A    between atoms: _8  and  _9
REMARK    7  A    between atoms: _18  and  _20
REMARK    8  A    between atoms: _20  and  _21
REMARK    9  A    between atoms: _20  and  _23
REMARK   10  A    between atoms: _23  and  _24
REMARK   11  A    between atoms: _27  and  _29
REMARK   12  A    between atoms: _29  and  _30
REMARK   13  A    between atoms: _29  and  _32
REMARK   14  A    between atoms: _32  and  _33
REMARK   15  A    between atoms: _39  and  _41
REMARK   16  A    between atoms: _41  and  _42
REMARK   17  A    between atoms: _41  and  _44
REMARK   18  A    between atoms: _44  and  _45
REMARK   19  A    between atoms: _45  and  _46
REMARK   20  A    between atoms: _49  and  _51
REMARK   21  A    between atoms: _51  and  _52
REMARK   22  A    between atoms: _51  and  _54
REMARK   23  A    between atoms: _54  and  _55
REMARK   24  A    between atoms: _58  and  _60
REMARK   25  A    between atoms: _60  and  _61
REMARK   26  A    between atoms: _60  and  _63
REMARK   27  A    between atoms: _63  and  _64
REMARK   28  A    between atoms: _64  and  _65
REMARK   29  A    between atoms: _65  and  _66
REMARK   30  A    between atoms: _75  and  _77
REMARK   31  A    between atoms: _77  and  _78
REMARK   32  A    between atoms: _81  and  _83
REMARK   33  A    between atoms: _83  and  _84
REMARK   34  A    between atoms: _83  and  _86
REMARK   35  A    between atoms: _86  and  _87
REMARK   36  A    between atoms: _90  and  _92
REMARK   37  A    between atoms: _92  and  _93
REMARK   38  A    between atoms: _95  and  _97
REMARK   39  A    between atoms: _97  and  _98
REMARK   40  A    between atoms: _100  and  _102
REMARK   41  A    between atoms: _102  and  _103
REMARK   42  A    between atoms: _102  and  _105
REMARK   43  A    between atoms: _105  and  _106
REMARK   44  A    between atoms: _109  and  _111
REMARK   45  A    between atoms: _111  and  _112
REMARK   46  A    between atoms: _111  and  _114
REMARK   47  A    between atoms: _114  and  _115
REMARK   48  A    between atoms: _117  and  _119
REMARK   49  A    between atoms: _119  and  _120
REMARK   50  A    between atoms: _119  and  _122
REMARK   51  A    between atoms: _122  and  _123
REMARK   52  A    between atoms: _123  and  _124
REMARK   53  A    between atoms: _127  and  _129
REMARK   54  A    between atoms: _129  and  _130
REMARK   55  A    between atoms: _129  and  _132
REMARK   56  A    between atoms: _132  and  _133
REMARK   57  A    between atoms: _138  and  _139
REMARK   58  A    between atoms: _141  and  _143
REMARK   59  A    between atoms: _143  and  _144
REMARK   60  A    between atoms: _143  and  _146
REMARK   61  A    between atoms: _146  and  _147
REMARK   62  A    between atoms: _147  and  _148
REMARK   63  A    between atoms: _148  and  _149
REMARK   64  A    between atoms: _149  and  _150
REMARK   65  A    between atoms: _154  and  _156
REMARK   66  A    between atoms: _156  and  _157
REMARK   67  A    between atoms: _156  and  _159
REMARK   68  A    between atoms: _159  and  _160
REMARK   69  A    between atoms: _163  and  _165
REMARK   70  A    between atoms: _165  and  _166
REMARK   71  A    between atoms: _165  and  _168
REMARK   72  A    between atoms: _168  and  _169
REMARK   73  A    between atoms: _175  and  _177
REMARK   74  A    between atoms: _177  and  _178
REMARK   75  A    between atoms: _177  and  _180
REMARK   76  A    between atoms: _183  and  _185
REMARK   77  A    between atoms: _185  and  _186
REMARK   78  A    between atoms: _185  and  _188
REMARK   79  A    between atoms: _188  and  _189
REMARK   80  A    between atoms: _192  and  _194
REMARK   81  A    between atoms: _194  and  _195
REMARK   82  A    between atoms: _194  and  _197
REMARK   83  A    between atoms: _197  and  _198
REMARK   84  A    between atoms: _198  and  _199
REMARK   85  A    between atoms: _199  and  _200
REMARK   86  A    between atoms: _210  and  _211
REMARK   87  A    between atoms: _216  and  _218
REMARK   88  A    between atoms: _218  and  _219
REMARK   89  A    between atoms: _218  and  _221
REMARK   90  A    between atoms: _221  and  _222
REMARK   91  A    between atoms: _222  and  _223
REMARK   92  A    between atoms: _226  and  _228
REMARK   93  A    between atoms: _228  and  _229
REMARK   94  A    between atoms: _228  and  _231
REMARK   95  A    between atoms: _231  and  _232
REMARK   96  A    between atoms: _232  and  _233
REMARK   97  A    between atoms: _236  and  _238
REMARK   98  A    between atoms: _238  and  _239
REMARK   99  A    between atoms: _238  and  _241
REMARK  100  A    between atoms: _241  and  _242
REMARK  101  A    between atoms: _242  and  _243
REMARK  102  A    between atoms: _246  and  _248
REMARK  103  A    between atoms: _248  and  _249
REMARK  104  A    between atoms: _248  and  _251
REMARK  105  A    between atoms: _251  and  _252
REMARK  106  A    between atoms: _254  and  _256
REMARK  107  A    between atoms: _256  and  _257
REMARK  108  A    between atoms: _256  and  _259
REMARK  109  A    between atoms: _259  and  _260
REMARK  110  A    between atoms: _266  and  _268
REMARK  111  A    between atoms: _268  and  _269
REMARK  112  A    between atoms: _268  and  _271
REMARK  113  A    between atoms: _271  and  _272
REMARK  114  A    between atoms: _275  and  _277
REMARK  115  A    between atoms: _277  and  _278
REMARK  116  A    between atoms: _281  and  _283
REMARK  117  A    between atoms: _283  and  _284
REMARK  118  A    between atoms: _283  and  _286
REMARK  119  A    between atoms: _286  and  _287
REMARK  120  A    between atoms: _287  and  _288
REMARK  121  A    between atoms: _291  and  _293
REMARK  122  A    between atoms: _293  and  _294
REMARK  123  A    between atoms: _293  and  _296
REMARK  124  A    between atoms: _296  and  _297
REMARK  125  A    between atoms: _302  and  _303
REMARK  126  A    between atoms: _305  and  _307
REMARK  127  A    between atoms: _307  and  _308
REMARK  128  A    between atoms: _307  and  _310
REMARK  129  A    between atoms: _310  and  _311
REMARK  130  A    between atoms: _316  and  _318
REMARK  131  A    between atoms: _318  and  _319
REMARK  132  A    between atoms: _318  and  _321
REMARK  133  A    between atoms: _321  and  _322
REMARK  134  A    between atoms: _325  and  _327
REMARK  135  A    between atoms: _327  and  _328
REMARK  136  A    between atoms: _327  and  _330
REMARK  137  A    between atoms: _330  and  _331
REMARK  138  A    between atoms: _331  and  _332
REMARK  139  A    between atoms: _335  and  _337
REMARK  140  A    between atoms: _337  and  _338
REMARK                            x       y       z     vdW  Elec       q    Type
REMARK                         _______ _______ _______ _____ _____    ______ ____
ROOT
ATOM      1  CA  ARG A   3      41.322  24.581 -39.216  0.00  0.00    +0.149 C 
ENDROOT
BRANCH   1   2
ATOM      2  C   ARG A   3      42.366  24.670 -40.332  0.00  0.00    +0.244 C 
ATOM      3  O   ARG A   3      43.558  24.460 -40.106  0.00  0.00    -0.273 OA
ATOM      4  N   PRO A   4      41.920  24.999 -41.557  0.00  0.00    -0.272 N 
ATOM      5  CD  PRO A   4      40.496  25.026 -41.969  0.00  0.00    +0.094 C 
ATOM      6  CG  PRO A   4      40.575  24.975 -43.514  0.00  0.00    +0.024 C 
ATOM      7  CB  PRO A   4      41.972  24.392 -43.780  0.00  0.00    +0.031 C 
ATOM      8  CA  PRO A   4      42.783  25.125 -42.725  0.00  0.00    +0.152 C 
BRANCH   8   9
ATOM      9  C   PRO A   4      43.217  26.475 -43.279  0.00  0.00    +0.241 C 
ATOM     10  N   GLU A   5      42.635  27.560 -42.790  0.00  0.00    -0.298 N 
ATOM     11  H   GLU A   5      41.992  27.475 -41.977  0.00  0.00    +0.150 HD
ATOM     12  O   PRO A   4      44.087  26.518 -44.162  0.00  0.00    -0.273 OA
BRANCH  10  13
ATOM     13  CA  GLU A   5      42.885  28.879 -43.379  0.00  0.00    +0.137 C 
BRANCH  13  14
ATOM     14  C   GLU A   5      44.300  29.384 -43.487  0.00  0.00    +0.227 C 
ATOM     15  O   GLU A   5      44.629  30.112 -44.434  0.00  0.00    -0.286 OA
ENDBRANCH  13  14
BRANCH  13  16
ATOM     16  CB  GLU A   5      42.006  29.941 -42.673  0.00  0.00    +0.039 C 
BRANCH  16  17
ATOM     17  CG  GLU A   5      40.494  29.660 -42.760  0.00  0.00    +0.116 C 
BRANCH  17  18
ATOM     18  CD  GLU A   5      39.975  28.728 -41.680  0.00  0.00    +0.365 C 
ATOM     19  OE2 GLU A   5      40.739  28.480 -40.728  0.00  0.00    -0.246 OA
ATOM     20  OE1 GLU A   5      38.792  28.264 -41.772  0.00  0.00    -0.246 OA
ENDBRANCH  17  18
ENDBRANCH  16  17
ENDBRANCH  13  16
ENDBRANCH  10  13
ENDBRANCH   8   9
ENDBRANCH   1   2
BRANCH   1  22
ATOM     21  C   LEU A   2      41.499  22.306 -38.346  0.00  0.00    +0.241 C 
ATOM     22  N   ARG A   3      41.639  23.616 -38.160  0.00  0.00    -0.297 N 
ATOM     23  H   ARG A   3      41.982  23.964 -37.242  0.00  0.00    +0.150 HD
ATOM     24  O   LEU A   2      41.126  21.807 -39.429  0.00  0.00    -0.273 OA
BRANCH  21  25
ATOM     25  CA  LEU A   2      41.848  21.397 -37.172  0.00  0.00    +0.149 C 
BRANCH  25  27
ATOM     26  C   VAL A   1      40.238  22.321 -35.568  0.00  0.00    +0.238 C 
ATOM     27  N   LEU A   2      41.494  22.017 -35.902  0.00  0.00    -0.297 N 
ATOM     28  H   LEU A   2      42.254  22.232 -35.225  0.00  0.00    +0.150 HD
ATOM     29  O   VAL A   1      39.273  22.100 -36.299  0.00  0.00    -0.274 OA
BRANCH  26  30
ATOM     30  CA  VAL A   1      40.054  22.962 -34.180  0.00  0.00    +0.145 C 
BRANCH  30  31
ATOM     31  CB  VAL A   1      38.597  23.506 -33.988  0.00  0.00    +0.025 C 
ATOM     32  CG2 VAL A   1      38.438  24.078 -32.549  0.00  0.00    +0.002 C 
ATOM     33  CG1 VAL A   1      38.300  24.585 -34.978  0.00  0.00    +0.002 C 
ENDBRANCH  30  31
BRANCH  30  34
ATOM     34  N   VAL A   1      41.030  23.984 -33.813  0.00  0.00    -0.238 NA
ATOM     35  H   VAL A   1      40.957  24.946 -34.201  0.00  0.00    +0.142 HD
ENDBRANCH  30  34
ENDBRANCH  26  30
ENDBRANCH  25  27
BRANCH  25  36
ATOM     36  CB  LEU A   2      41.121  20.034 -37.330  0.00  0.00    +0.029 C 
BRANCH  36  37
ATOM     37  CG  LEU A   2      41.193  19.018 -36.184  0.00  0.00    +0.002 C 
ATOM     38  CD2 LEU A   2      42.707  18.747 -35.818  0.00  0.00    +0.000 C 
ATOM     39  CD1 LEU A   2      40.540  17.665 -36.701  0.00  0.00    +0.000 C 
ENDBRANCH  36  37
ENDBRANCH  25  36
ENDBRANCH  21  25
ENDBRANCH   1  22
BRANCH   1  40
ATOM     40  CB  ARG A   3      41.127  25.974 -38.626  0.00  0.00    +0.033 C 
BRANCH  40  41
ATOM     41  CG  ARG A   3      39.992  26.103 -37.636  0.00  0.00    +0.045 C 
BRANCH  41  42
ATOM     42  CD  ARG A   3      39.776  27.574 -37.296  0.00  0.00    +0.174 C 
BRANCH  42  43
ATOM     43  NE  ARG A   3      38.818  27.755 -36.213  0.00  0.00    -0.265 N 
ATOM     44  HE  ARG A   3      39.181  28.082 -35.295  0.00  0.00    +0.259 HD
ATOM     45  CZ  ARG A   3      37.514  27.531 -36.317  0.00  0.00    +0.342 C 
ATOM     46  NH2 ARG A   3      36.725  27.734 -35.272  0.00  0.00    -0.292 N 
ATOM     47 HH21 ARG A   3      37.128  28.068 -34.373  0.00  0.00    +0.255 HD
ATOM     48 HH22 ARG A   3      35.703  27.559 -35.351  0.00  0.00    +0.255 HD
ATOM     49  NH1 ARG A   3      36.996  27.117 -37.460  0.00  0.00    -0.292 N 
ATOM     50 HH11 ARG A   3      35.973  26.943 -37.535  0.00  0.00    +0.255 HD
ATOM     51 HH12 ARG A   3      37.611  26.965 -38.285  0.00  0.00    +0.255 HD
ENDBRANCH  42  43
ENDBRANCH  41  42
ENDBRANCH  40  41
ENDBRANCH   1  40
TORSDOF 19
REMARK  Name = ../refined-set-2016/2ri9/2ri9_pocket.pdb
REMARK  140 active torsions:
REMARK  status: ('A' for Active; 'I' for Inactive)
REMARK    1  A    between atoms: _1  and  _3
REMARK    2  A    between atoms: _3  and  _4
REMARK    3  A    between atoms: _3  and  _6
REMARK    4  A    between atoms: _6  and  _7
REMARK    5  A    between atoms: _7  and  _8
REMARK    6  A    between atoms: _8  and  _9
REMARK    7  A    between atoms: _18  and  _20
REMARK    8  A    between atoms: _20  and  _21
REMARK    9  A    between atoms: _20  and  _23
REMARK   10  A    between atoms: _23  and  _24
REMARK   11  A    between atoms: _27  and  _29
REMARK   12  A    between atoms: _29  and  _30
REMARK   13  A    between atoms: _29  and  _32
REMARK   14  A    between atoms: _32  and  _33
REMARK   15  A    between atoms: _39  and  _41
REMARK   16  A    between atoms: _41  and  _42
REMARK   17  A    between atoms: _41  and  _44
REMARK   18  A    between atoms: _44  and  _45
REMARK   19  A    between atoms: _45  and  _46
REMARK   20  A    between atoms: _49  and  _51
REMARK   21  A    between atoms: _51  and  _52
REMARK   22  A    between atoms: _51  and  _54
REMARK   23  A    between atoms: _54  and  _55
REMARK   24  A    between atoms: _58  and  _60
REMARK   25  A    between atoms: _60  and  _61
REMARK   26  A    between atoms: _60  and  _63
REMARK   27  A    between atoms: _63  and  _64
REMARK   28  A    between atoms: _64  and  _65
REMARK   29  A    between atoms: _65  and  _66
REMARK   30  A    between atoms: _75  and  _77
REMARK   31  A    between atoms: _77  and  _78
REMARK   32  A    between atoms: _81  and  _83
REMARK   33  A    between atoms: _83  and  _84
REMARK   34  A    between atoms: _83  and  _86
REMARK   35  A    between atoms: _86  and  _87
REMARK   36  A    between atoms: _90  and  _92
REMARK   37  A    between atoms: _92  and  _93
REMARK   38  A    between atoms: _95  and  _97
REMARK   39  A    between atoms: _97  and  _98
REMARK   40  A    between atoms: _100  and  _102
REMARK   41  A    between atoms: _102  and  _103
REMARK   42  A    between atoms: _102  and  _105
REMARK   43  A    between atoms: _105  and  _106
REMARK   44  A    between atoms: _109  and  _111
REMARK   45  A    between atoms: _111  and  _112
REMARK   46  A    between atoms: _111  and  _114
REMARK   47  A    between atoms: _114  and  _115
REMARK   48  A    between atoms: _117  and  _119
REMARK   49  A    between atoms: _119  and  _120
REMARK   50  A    between atoms: _119  and  _122
REMARK   51  A    between atoms: _122  and  _123
REMARK   52  A    between atoms: _123  and  _124
REMARK   53  A    between atoms: _127  and  _129
REMARK   54  A    between atoms: _129  and  _130
REMARK   55  A    between atoms: _129  and  _132
REMARK   56  A    between atoms: _132  and  _133
REMARK   57  A    between atoms: _138  and  _139
REMARK   58  A    between atoms: _141  and  _143
REMARK   59  A    between atoms: _143  and  _144
REMARK   60  A    between atoms: _143  and  _146
REMARK   61  A    between atoms: _146  and  _147
REMARK   62  A    between atoms: _147  and  _148
REMARK   63  A    between atoms: _148  and  _149
REMARK   64  A    between atoms: _149  and  _150
REMARK   65  A    between atoms: _154  and  _156
REMARK   66  A    between atoms: _156  and  _157
REMARK   67  A    between atoms: _156  and  _159
REMARK   68  A    between atoms: _159  and  _160
REMARK   69  A    between atoms: _163  and  _165
REMARK   70  A    between atoms: _165  and  _166
REMARK   71  A    between atoms: _165  and  _168
REMARK   72  A    between atoms: _168  and  _169
REMARK   73  A    between atoms: _175  and  _177
REMARK   74  A    between atoms: _177  and  _178
REMARK   75  A    between atoms: _177  and  _180
REMARK   76  A    between atoms: _183  and  _185
REMARK   77  A    between atoms: _185  and  _186
REMARK   78  A    between atoms: _185  and  _188
REMARK   79  A    between atoms: _188  and  _189
REMARK   80  A    between atoms: _192  and  _194
REMARK   81  A    between atoms: _194  and  _195
REMARK   82  A    between atoms: _194  and  _197
REMARK   83  A    between atoms: _197  and  _198
REMARK   84  A    between atoms: _198  and  _199
REMARK   85  A    between atoms: _199  and  _200
REMARK   86  A    between atoms: _210  and  _211
REMARK   87  A    between atoms: _216  and  _218
REMARK   88  A    between atoms: _218  and  _219
REMARK   89  A    between atoms: _218  and  _221
REMARK   90  A    between atoms: _221  and  _222
REMARK   91  A    between atoms: _222  and  _223
REMARK   92  A    between atoms: _226  and  _228
REMARK   93  A    between atoms: _228  and  _229
REMARK   94  A    between atoms: _228  and  _231
REMARK   95  A    between atoms: _231  and  _232
REMARK   96  A    between atoms: _232  and  _233
REMARK   97  A    between atoms: _236  and  _238
REMARK   98  A    between atoms: _238  and  _239
REMARK   99  A    between atoms: _238  and  _241
REMARK  100  A    between atoms: _241  and  _242
REMARK  101  A    between atoms: _242  and  _243
REMARK  102  A    between atoms: _246  and  _248
REMARK  103  A    between atoms: _248  and  _249
REMARK  104  A    between atoms: _248  and  _251
REMARK  105  A    between atoms: _251  and  _252
REMARK  106  A    between atoms: _254  and  _256
REMARK  107  A    between atoms: _256  and  _257
REMARK  108  A    between atoms: _256  and  _259
REMARK  109  A    between atoms: _259  and  _260
REMARK  110  A    between atoms: _266  and  _268
REMARK  111  A    between atoms: _268  and  _269
REMARK  112  A    between atoms: _268  and  _271
REMARK  113  A    between atoms: _271  and  _272
REMARK  114  A    between atoms: _275  and  _277
REMARK  115  A    between atoms: _277  and  _278
REMARK  116  A    between atoms: _281  and  _283
REMARK  117  A    between atoms: _283  and  _284
REMARK  118  A    between atoms: _283  and  _286
REMARK  119  A    between atoms: _286  and  _287
REMARK  120  A    between atoms: _287  and  _288
REMARK  121  A    between atoms: _291  and  _293
REMARK  122  A    between atoms: _293  and  _294
REMARK  123  A    between atoms: _293  and  _296
REMARK  124  A    between atoms: _296  and  _297
REMARK  125  A    between atoms: _302  and  _303
REMARK  126  A    between atoms: _305  and  _307
REMARK  127  A    between atoms: _307  and  _308
REMARK  128  A    between atoms: _307  and  _310
REMARK  129  A    between atoms: _310  and  _311
REMARK  130  A    between atoms: _316  and  _318
REMARK  131  A    between atoms: _318  and  _319
REMARK  132  A    between atoms: _318  and  _321
REMARK  133  A    between atoms: _321  and  _322
REMARK  134  A    between atoms: _325  and  _327
REMARK  135  A    between atoms: _327  and  _328
REMARK  136  A    between atoms: _327  and  _330
REMARK  137  A    between atoms: _330  and  _331
REMARK  138  A    between atoms: _331  and  _332
REMARK  139  A    between atoms: _335  and  _337
REMARK  140  A    between atoms: _337  and  _338
REMARK                            x       y       z     vdW  Elec       q    Type
REMARK                         _______ _______ _______ _____ _____    ______ ____
ROOT
ATOM      1  CA  GLU A   1      45.420  27.652 -47.442  0.00  0.00    +0.134 C 
ENDROOT
BRANCH   1   2
ATOM      2  N   GLU A   1      46.029  27.253 -46.171  0.00  0.00    -0.239 NA
ATOM      3  H   GLU A   1      45.433  27.211 -45.320  0.00  0.00    +0.142 HD
ENDBRANCH   1   2
BRANCH   1   4
ATOM      4  C   GLU A   1      46.157  28.879 -48.026  0.00  0.00    +0.224 C 
ATOM      5  O   GLU A   1      46.581  28.887 -49.191  0.00  0.00    -0.287 OA
ENDBRANCH   1   4
BRANCH   1   6
ATOM      6  CB  GLU A   1      43.901  28.005 -47.215  0.00  0.00    +0.037 C 
BRANCH   6   7
ATOM      7  CG  GLU A   1      43.138  28.726 -48.388  0.00  0.00    +0.116 C 
BRANCH   7   8
ATOM      8  CD  GLU A   1      41.665  29.108 -48.032  0.00  0.00    +0.365 C 
ATOM      9  OE2 GLU A   1      41.199  28.756 -46.913  0.00  0.00    -0.246 OA
ATOM     10  OE1 GLU A   1      40.965  29.756 -48.869  0.00  0.00    -0.246 OA
ENDBRANCH   7   8
ENDBRANCH   6   7
ENDBRANCH   1   6
TORSDOF 5
REMARK  Name = ../refined-set-2016/2ri9/2ri9_pocket.pdb
REMARK  140 active torsions:
REMARK  status: ('A' for Active; 'I' for Inactive)
REMARK    1  A    between atoms: _1  and  _3
REMARK    2  A    between atoms: _3  and  _4
REMARK    3  A    between atoms: _3  and  _6
REMARK    4  A    between atoms: _6  and  _7
REMARK    5  A    between atoms: _7  and  _8
REMARK    6  A    between atoms: _8  and  _9
REMARK    7  A    between atoms: _18  and  _20
REMARK    8  A    between atoms: _20  and  _21
REMARK    9  A    between atoms: _20  and  _23
REMARK   10  A    between atoms: _23  and  _24
REMARK   11  A    between atoms: _27  and  _29
REMARK   12  A    between atoms: _29  and  _30
REMARK   13  A    between atoms: _29  and  _32
REMARK   14  A    between atoms: _32  and  _33
REMARK   15  A    between atoms: _39  and  _41
REMARK   16  A    between atoms: _41  and  _42
REMARK   17  A    between atoms: _41  and  _44
REMARK   18  A    between atoms: _44  and  _45
REMARK   19  A    between atoms: _45  and  _46
REMARK   20  A    between atoms: _49  and  _51
REMARK   21  A    between atoms: _51  and  _52
REMARK   22  A    between atoms: _51  and  _54
REMARK   23  A    between atoms: _54  and  _55
REMARK   24  A    between atoms: _58  and  _60
REMARK   25  A    between atoms: _60  and  _61
REMARK   26  A    between atoms: _60  and  _63
REMARK   27  A    between atoms: _63  and  _64
REMARK   28  A    between atoms: _64  and  _65
REMARK   29  A    between atoms: _65  and  _66
REMARK   30  A    between atoms: _75  and  _77
REMARK   31  A    between atoms: _77  and  _78
REMARK   32  A    between atoms: _81  and  _83
REMARK   33  A    between atoms: _83  and  _84
REMARK   34  A    between atoms: _83  and  _86
REMARK   35  A    between atoms: _86  and  _87
REMARK   36  A    between atoms: _90  and  _92
REMARK   37  A    between atoms: _92  and  _93
REMARK   38  A    between atoms: _95  and  _97
REMARK   39  A    between atoms: _97  and  _98
REMARK   40  A    between atoms: _100  and  _102
REMARK   41  A    between atoms: _102  and  _103
REMARK   42  A    between atoms: _102  and  _105
REMARK   43  A    between atoms: _105  and  _106
REMARK   44  A    between atoms: _109  and  _111
REMARK   45  A    between atoms: _111  and  _112
REMARK   46  A    between atoms: _111  and  _114
REMARK   47  A    between atoms: _114  and  _115
REMARK   48  A    between atoms: _117  and  _119
REMARK   49  A    between atoms: _119  and  _120
REMARK   50  A    between atoms: _119  and  _122
REMARK   51  A    between atoms: _122  and  _123
REMARK   52  A    between atoms: _123  and  _124
REMARK   53  A    between atoms: _127  and  _129
REMARK   54  A    between atoms: _129  and  _130
REMARK   55  A    between atoms: _129  and  _132
REMARK   56  A    between atoms: _132  and  _133
REMARK   57  A    between atoms: _138  and  _139
REMARK   58  A    between atoms: _141  and  _143
REMARK   59  A    between atoms: _143  and  _144
REMARK   60  A    between atoms: _143  and  _146
REMARK   61  A    between atoms: _146  and  _147
REMARK   62  A    between atoms: _147  and  _148
REMARK   63  A    between atoms: _148  and  _149
REMARK   64  A    between atoms: _149  and  _150
REMARK   65  A    between atoms: _154  and  _156
REMARK   66  A    between atoms: _156  and  _157
REMARK   67  A    between atoms: _156  and  _159
REMARK   68  A    between atoms: _159  and  _160
REMARK   69  A    between atoms: _163  and  _165
REMARK   70  A    between atoms: _165  and  _166
REMARK   71  A    between atoms: _165  and  _168
REMARK   72  A    between atoms: _168  and  _169
REMARK   73  A    between atoms: _175  and  _177
REMARK   74  A    between atoms: _177  and  _178
REMARK   75  A    between atoms: _177  and  _180
REMARK   76  A    between atoms: _183  and  _185
REMARK   77  A    between atoms: _185  and  _186
REMARK   78  A    between atoms: _185  and  _188
REMARK   79  A    between atoms: _188  and  _189
REMARK   80  A    between atoms: _192  and  _194
REMARK   81  A    between atoms: _194  and  _195
REMARK   82  A    between atoms: _194  and  _197
REMARK   83  A    between atoms: _197  and  _198
REMARK   84  A    between atoms: _198  and  _199
REMARK   85  A    between atoms: _199  and  _200
REMARK   86  A    between atoms: _210  and  _211
REMARK   87  A    between atoms: _216  and  _218
REMARK   88  A    between atoms: _218  and  _219
REMARK   89  A    between atoms: _218  and  _221
REMARK   90  A    between atoms: _221  and  _222
REMARK   91  A    between atoms: _222  and  _223
REMARK   92  A    between atoms: _226  and  _228
REMARK   93  A    between atoms: _228  and  _229
REMARK   94  A    between atoms: _228  and  _231
REMARK   95  A    between atoms: _231  and  _232
REMARK   96  A    between atoms: _232  and  _233
REMARK   97  A    between atoms: _236  and  _238
REMARK   98  A    between atoms: _238  and  _239
REMARK   99  A    between atoms: _238  and  _241
REMARK  100  A    between atoms: _241  and  _242
REMARK  101  A    between atoms: _242  and  _243
REMARK  102  A    between atoms: _246  and  _248
REMARK  103  A    between atoms: _248  and  _249
REMARK  104  A    between atoms: _248  and  _251
REMARK  105  A    between atoms: _251  and  _252
REMARK  106  A    between atoms: _254  and  _256
REMARK  107  A    between atoms: _256  and  _257
REMARK  108  A    between atoms: _256  and  _259
REMARK  109  A    between atoms: _259  and  _260
REMARK  110  A    between atoms: _266  and  _268
REMARK  111  A    between atoms: _268  and  _269
REMARK  112  A    between atoms: _268  and  _271
REMARK  113  A    between atoms: _271  and  _272
REMARK  114  A    between atoms: _275  and  _277
REMARK  115  A    between atoms: _277  and  _278
REMARK  116  A    between atoms: _281  and  _283
REMARK  117  A    between atoms: _283  and  _284
REMARK  118  A    between atoms: _283  and  _286
REMARK  119  A    between atoms: _286  and  _287
REMARK  120  A    between atoms: _287  and  _288
REMARK  121  A    between atoms: _291  and  _293
REMARK  122  A    between atoms: _293  and  _294
REMARK  123  A    between atoms: _293  and  _296
REMARK  124  A    between atoms: _296  and  _297
REMARK  125  A    between atoms: _302  and  _303
REMARK  126  A    between atoms: _305  and  _307
REMARK  127  A    between atoms: _307  and  _308
REMARK  128  A    between atoms: _307  and  _310
REMARK  129  A    between atoms: _310  and  _311
REMARK  130  A    between atoms: _316  and  _318
REMARK  131  A    between atoms: _318  and  _319
REMARK  132  A    between atoms: _318  and  _321
REMARK  133  A    between atoms: _321  and  _322
REMARK  134  A    between atoms: _325  and  _327
REMARK  135  A    between atoms: _327  and  _328
REMARK  136  A    between atoms: _327  and  _330
REMARK  137  A    between atoms: _330  and  _331
REMARK  138  A    between atoms: _331  and  _332
REMARK  139  A    between atoms: _335  and  _337
REMARK  140  A    between atoms: _337  and  _338
REMARK                            x       y       z     vdW  Elec       q    Type
REMARK                         _______ _______ _______ _____ _____    ______ ____
ROOT
ATOM      1  C   SER A   2      35.918  17.724 -42.786  0.00  0.00    +0.243 C 
ATOM      2  N   PHE A   3      36.138  18.999 -42.460  0.00  0.00    -0.297 N 
ATOM      3  H   PHE A   3      35.615  19.440 -41.676  0.00  0.00    +0.150 HD
ATOM      4  O   SER A   2      36.456  17.193 -43.778  0.00  0.00    -0.273 OA
ENDROOT
BRANCH   1   5
ATOM      5  CA  SER A   2      34.921  16.921 -41.929  0.00  0.00    +0.178 C 
BRANCH   5   8
ATOM      6  C   GLU A   1      35.748  17.515 -39.702  0.00  0.00    +0.238 C 
ATOM      7  O   GLU A   1      36.921  17.203 -39.976  0.00  0.00    -0.274 OA
ATOM      8  N   SER A   2      34.737  17.437 -40.574  0.00  0.00    -0.295 N 
ATOM      9  H   SER A   2      33.791  17.753 -40.279  0.00  0.00    +0.150 HD
BRANCH   6  10
ATOM     10  CA  GLU A   1      35.408  18.059 -38.328  0.00  0.00    +0.145 C 
BRANCH  10  11
ATOM     11  N   GLU A   1      36.311  17.485 -37.311  0.00  0.00    -0.238 NA
ATOM     12  H   GLU A   1      36.995  18.105 -36.832  0.00  0.00    +0.142 HD
ENDBRANCH  10  11
BRANCH  10  13
ATOM     13  CB  GLU A   1      35.531  19.593 -38.368  0.00  0.00    +0.038 C 
BRANCH  13  14
ATOM     14  CG  GLU A   1      34.930  20.296 -37.176  0.00  0.00    +0.116 C 
BRANCH  14  15
ATOM     15  CD  GLU A   1      33.535  20.846 -37.447  0.00  0.00    +0.365 C 
ATOM     16  OE2 GLU A   1      33.005  21.535 -36.551  0.00  0.00    -0.246 OA
ATOM     17  OE1 GLU A   1      32.973  20.592 -38.538  0.00  0.00    -0.246 OA
ENDBRANCH  14  15
ENDBRANCH  13  14
ENDBRANCH  10  13
ENDBRANCH   6  10
ENDBRANCH   5   8
BRANCH   5  18
ATOM     18  CB  SER A   2      33.557  16.819 -42.661  0.00  0.00    +0.166 C 
BRANCH  18  19
ATOM     19  OG  SER A   2      33.090  18.086 -43.135  0.00  0.00    -0.380 OA
ATOM     20  H   SER A   2      33.749  18.463 -43.771  0.00  0.00    +0.211 HD
ENDBRANCH  18  19
ENDBRANCH   5  18
ENDBRANCH   1   5
BRANCH   2  21
ATOM     21  CA  PHE A   3      37.131  19.775 -43.224  0.00  0.00    +0.153 C 
BRANCH  21  22
ATOM     22  C   PHE A   3      38.595  19.335 -43.018  0.00  0.00    +0.241 C 
ATOM     23  N   LEU A   4      38.811  18.412 -42.074  0.00  0.00    -0.298 N 
ATOM     24  H   LEU A   4      38.027  18.121 -41.456  0.00  0.00    +0.150 HD
ATOM     25  O   PHE A   3      39.517  19.802 -43.732  0.00  0.00    -0.273 OA
BRANCH  23  26
ATOM     26  CA  LEU A   4      40.148  17.795 -41.892  0.00  0.00    +0.137 C 
BRANCH  26  27
ATOM     27  C   LEU A   4      40.468  17.083 -43.242  0.00  0.00    +0.227 C 
ATOM     28  O   LEU A   4      41.568  17.227 -43.840  0.00  0.00    -0.286 OA
ENDBRANCH  26  27
BRANCH  26  29
ATOM     29  CB  LEU A   4      40.094  16.759 -40.744  0.00  0.00    +0.028 C 
BRANCH  29  30
ATOM     30  CG  LEU A   4      41.346  15.907 -40.368  0.00  0.00    +0.002 C 
ATOM     31  CD2 LEU A   4      42.606  16.775 -40.404  0.00  0.00    +0.000 C 
ATOM     32  CD1 LEU A   4      41.502  14.700 -41.306  0.00  0.00    +0.000 C 
ENDBRANCH  29  30
ENDBRANCH  26  29
ENDBRANCH  23  26
ENDBRANCH  21  22
BRANCH  21  33
ATOM     33  CB  PHE A   3      36.935  21.297 -43.045  0.00  0.00    +0.055 C 
BRANCH  33  34
ATOM     34  CG  PHE A   3      36.737  21.764 -41.611  0.00  0.00    -0.020 A 
ATOM     35  CD2 PHE A   3      37.798  21.788 -40.705  0.00  0.00    -0.004 A 
ATOM     36  CE2 PHE A   3      37.648  22.366 -39.445  0.00  0.00    -0.000 A 
ATOM     37  CZ  PHE A   3      36.433  22.929 -39.062  0.00  0.00    -0.000 A 
ATOM     38  CE1 PHE A   3      35.363  22.897 -39.953  0.00  0.00    -0.000 A 
ATOM     39  CD1 PHE A   3      35.522  22.313 -41.219  0.00  0.00    -0.004 A 
ENDBRANCH  33  34
ENDBRANCH  21  33
ENDBRANCH   2  21
TORSDOF 17
REMARK  Name = ../refined-set-2016/2ri9/2ri9_pocket.pdb
REMARK  140 active torsions:
REMARK  status: ('A' for Active; 'I' for Inactive)
REMARK    1  A    between atoms: _1  and  _3
REMARK    2  A    between atoms: _3  and  _4
REMARK    3  A    between atoms: _3  and  _6
REMARK    4  A    between atoms: _6  and  _7
REMARK    5  A    between atoms: _7  and  _8
REMARK    6  A    between atoms: _8  and  _9
REMARK    7  A    between atoms: _18  and  _20
REMARK    8  A    between atoms: _20  and  _21
REMARK    9  A    between atoms: _20  and  _23
REMARK   10  A    between atoms: _23  and  _24
REMARK   11  A    between atoms: _27  and  _29
REMARK   12  A    between atoms: _29  and  _30
REMARK   13  A    between atoms: _29  and  _32
REMARK   14  A    between atoms: _32  and  _33
REMARK   15  A    between atoms: _39  and  _41
REMARK   16  A    between atoms: _41  and  _42
REMARK   17  A    between atoms: _41  and  _44
REMARK   18  A    between atoms: _44  and  _45
REMARK   19  A    between atoms: _45  and  _46
REMARK   20  A    between atoms: _49  and  _51
REMARK   21  A    between atoms: _51  and  _52
REMARK   22  A    between atoms: _51  and  _54
REMARK   23  A    between atoms: _54  and  _55
REMARK   24  A    between atoms: _58  and  _60
REMARK   25  A    between atoms: _60  and  _61
REMARK   26  A    between atoms: _60  and  _63
REMARK   27  A    between atoms: _63  and  _64
REMARK   28  A    between atoms: _64  and  _65
REMARK   29  A    between atoms: _65  and  _66
REMARK   30  A    between atoms: _75  and  _77
REMARK   31  A    between atoms: _77  and  _78
REMARK   32  A    between atoms: _81  and  _83
REMARK   33  A    between atoms: _83  and  _84
REMARK   34  A    between atoms: _83  and  _86
REMARK   35  A    between atoms: _86  and  _87
REMARK   36  A    between atoms: _90  and  _92
REMARK   37  A    between atoms: _92  and  _93
REMARK   38  A    between atoms: _95  and  _97
REMARK   39  A    between atoms: _97  and  _98
REMARK   40  A    between atoms: _100  and  _102
REMARK   41  A    between atoms: _102  and  _103
REMARK   42  A    between atoms: _102  and  _105
REMARK   43  A    between atoms: _105  and  _106
REMARK   44  A    between atoms: _109  and  _111
REMARK   45  A    between atoms: _111  and  _112
REMARK   46  A    between atoms: _111  and  _114
REMARK   47  A    between atoms: _114  and  _115
REMARK   48  A    between atoms: _117  and  _119
REMARK   49  A    between atoms: _119  and  _120
REMARK   50  A    between atoms: _119  and  _122
REMARK   51  A    between atoms: _122  and  _123
REMARK   52  A    between atoms: _123  and  _124
REMARK   53  A    between atoms: _127  and  _129
REMARK   54  A    between atoms: _129  and  _130
REMARK   55  A    between atoms: _129  and  _132
REMARK   56  A    between atoms: _132  and  _133
REMARK   57  A    between atoms: _138  and  _139
REMARK   58  A    between atoms: _141  and  _143
REMARK   59  A    between atoms: _143  and  _144
REMARK   60  A    between atoms: _143  and  _146
REMARK   61  A    between atoms: _146  and  _147
REMARK   62  A    between atoms: _147  and  _148
REMARK   63  A    between atoms: _148  and  _149
REMARK   64  A    between atoms: _149  and  _150
REMARK   65  A    between atoms: _154  and  _156
REMARK   66  A    between atoms: _156  and  _157
REMARK   67  A    between atoms: _156  and  _159
REMARK   68  A    between atoms: _159  and  _160
REMARK   69  A    between atoms: _163  and  _165
REMARK   70  A    between atoms: _165  and  _166
REMARK   71  A    between atoms: _165  and  _168
REMARK   72  A    between atoms: _168  and  _169
REMARK   73  A    between atoms: _175  and  _177
REMARK   74  A    between atoms: _177  and  _178
REMARK   75  A    between atoms: _177  and  _180
REMARK   76  A    between atoms: _183  and  _185
REMARK   77  A    between atoms: _185  and  _186
REMARK   78  A    between atoms: _185  and  _188
REMARK   79  A    between atoms: _188  and  _189
REMARK   80  A    between atoms: _192  and  _194
REMARK   81  A    between atoms: _194  and  _195
REMARK   82  A    between atoms: _194  and  _197
REMARK   83  A    between atoms: _197  and  _198
REMARK   84  A    between atoms: _198  and  _199
REMARK   85  A    between atoms: _199  and  _200
REMARK   86  A    between atoms: _210  and  _211
REMARK   87  A    between atoms: _216  and  _218
REMARK   88  A    between atoms: _218  and  _219
REMARK   89  A    between atoms: _218  and  _221
REMARK   90  A    between atoms: _221  and  _222
REMARK   91  A    between atoms: _222  and  _223
REMARK   92  A    between atoms: _226  and  _228
REMARK   93  A    between atoms: _228  and  _229
REMARK   94  A    between atoms: _228  and  _231
REMARK   95  A    between atoms: _231  and  _232
REMARK   96  A    between atoms: _232  and  _233
REMARK   97  A    between atoms: _236  and  _238
REMARK   98  A    between atoms: _238  and  _239
REMARK   99  A    between atoms: _238  and  _241
REMARK  100  A    between atoms: _241  and  _242
REMARK  101  A    between atoms: _242  and  _243
REMARK  102  A    between atoms: _246  and  _248
REMARK  103  A    between atoms: _248  and  _249
REMARK  104  A    between atoms: _248  and  _251
REMARK  105  A    between atoms: _251  and  _252
REMARK  106  A    between atoms: _254  and  _256
REMARK  107  A    between atoms: _256  and  _257
REMARK  108  A    between atoms: _256  and  _259
REMARK  109  A    between atoms: _259  and  _260
REMARK  110  A    between atoms: _266  and  _268
REMARK  111  A    between atoms: _268  and  _269
REMARK  112  A    between atoms: _268  and  _271
REMARK  113  A    between atoms: _271  and  _272
REMARK  114  A    between atoms: _275  and  _277
REMARK  115  A    between atoms: _277  and  _278
REMARK  116  A    between atoms: _281  and  _283
REMARK  117  A    between atoms: _283  and  _284
REMARK  118  A    between atoms: _283  and  _286
REMARK  119  A    between atoms: _286  and  _287
REMARK  120  A    between atoms: _287  and  _288
REMARK  121  A    between atoms: _291  and  _293
REMARK  122  A    between atoms: _293  and  _294
REMARK  123  A    between atoms: _293  and  _296
REMARK  124  A    between atoms: _296  and  _297
REMARK  125  A    between atoms: _302  and  _303
REMARK  126  A    between atoms: _305  and  _307
REMARK  127  A    between atoms: _307  and  _308
REMARK  128  A    between atoms: _307  and  _310
REMARK  129  A    between atoms: _310  and  _311
REMARK  130  A    between atoms: _316  and  _318
REMARK  131  A    between atoms: _318  and  _319
REMARK  132  A    between atoms: _318  and  _321
REMARK  133  A    between atoms: _321  and  _322
REMARK  134  A    between atoms: _325  and  _327
REMARK  135  A    between atoms: _327  and  _328
REMARK  136  A    between atoms: _327  and  _330
REMARK  137  A    between atoms: _330  and  _331
REMARK  138  A    between atoms: _331  and  _332
REMARK  139  A    between atoms: _335  and  _337
REMARK  140  A    between atoms: _337  and  _338
REMARK                            x       y       z     vdW  Elec       q    Type
REMARK                         _______ _______ _______ _____ _____    ______ ____
ROOT
ATOM      1  C   ALA A   1      39.524  19.313 -47.654  0.00  0.00    +0.238 C 
ATOM      2  N   GLU A   2      39.881  19.995 -46.564  0.00  0.00    -0.298 N 
ATOM      3  H   GLU A   2      39.470  19.731 -45.646  0.00  0.00    +0.150 HD
ATOM      4  O   ALA A   1      39.991  19.516 -48.779  0.00  0.00    -0.274 OA
ENDROOT
BRANCH   1   5
ATOM      5  CA  ALA A   1      38.461  18.250 -47.463  0.00  0.00    +0.145 C 
ATOM      6  CB  ALA A   1      37.081  18.946 -47.451  0.00  0.00    +0.028 C 
BRANCH   5   7
ATOM      7  N   ALA A   1      38.609  17.403 -46.288  0.00  0.00    -0.238 NA
ATOM      8  H   ALA A   1      37.962  17.517 -45.482  0.00  0.00    +0.142 HD
ENDBRANCH   5   7
ENDBRANCH   1   5
BRANCH   2   9
ATOM      9  CA  GLU A   2      40.837  21.107 -46.624  0.00  0.00    +0.137 C 
BRANCH   9  10
ATOM     10  C   GLU A   2      42.240  20.932 -46.046  0.00  0.00    +0.227 C 
ATOM     11  O   GLU A   2      43.222  21.219 -46.708  0.00  0.00    -0.286 OA
ENDBRANCH   9  10
BRANCH   9  12
ATOM     12  CB  GLU A   2      40.229  22.338 -45.956  0.00  0.00    +0.039 C 
BRANCH  12  13
ATOM     13  CG  GLU A   2      38.796  22.721 -46.417  0.00  0.00    +0.116 C 
BRANCH  13  14
ATOM     14  CD  GLU A   2      38.479  24.167 -46.012  0.00  0.00    +0.365 C 
ATOM     15  OE2 GLU A   2      37.597  24.348 -45.148  0.00  0.00    -0.246 OA
ATOM     16  OE1 GLU A   2      39.146  25.112 -46.537  0.00  0.00    -0.246 OA
ENDBRANCH  13  14
ENDBRANCH  12  13
ENDBRANCH   9  12
ENDBRANCH   2   9
TORSDOF 7
REMARK  Name = ../refined-set-2016/2ri9/2ri9_pocket.pdb
REMARK  140 active torsions:
REMARK  status: ('A' for Active; 'I' for Inactive)
REMARK    1  A    between atoms: _1  and  _3
REMARK    2  A    between atoms: _3  and  _4
REMARK    3  A    between atoms: _3  and  _6
REMARK    4  A    between atoms: _6  and  _7
REMARK    5  A    between atoms: _7  and  _8
REMARK    6  A    between atoms: _8  and  _9
REMARK    7  A    between atoms: _18  and  _20
REMARK    8  A    between atoms: _20  and  _21
REMARK    9  A    between atoms: _20  and  _23
REMARK   10  A    between atoms: _23  and  _24
REMARK   11  A    between atoms: _27  and  _29
REMARK   12  A    between atoms: _29  and  _30
REMARK   13  A    between atoms: _29  and  _32
REMARK   14  A    between atoms: _32  and  _33
REMARK   15  A    between atoms: _39  and  _41
REMARK   16  A    between atoms: _41  and  _42
REMARK   17  A    between atoms: _41  and  _44
REMARK   18  A    between atoms: _44  and  _45
REMARK   19  A    between atoms: _45  and  _46
REMARK   20  A    between atoms: _49  and  _51
REMARK   21  A    between atoms: _51  and  _52
REMARK   22  A    between atoms: _51  and  _54
REMARK   23  A    between atoms: _54  and  _55
REMARK   24  A    between atoms: _58  and  _60
REMARK   25  A    between atoms: _60  and  _61
REMARK   26  A    between atoms: _60  and  _63
REMARK   27  A    between atoms: _63  and  _64
REMARK   28  A    between atoms: _64  and  _65
REMARK   29  A    between atoms: _65  and  _66
REMARK   30  A    between atoms: _75  and  _77
REMARK   31  A    between atoms: _77  and  _78
REMARK   32  A    between atoms: _81  and  _83
REMARK   33  A    between atoms: _83  and  _84
REMARK   34  A    between atoms: _83  and  _86
REMARK   35  A    between atoms: _86  and  _87
REMARK   36  A    between atoms: _90  and  _92
REMARK   37  A    between atoms: _92  and  _93
REMARK   38  A    between atoms: _95  and  _97
REMARK   39  A    between atoms: _97  and  _98
REMARK   40  A    between atoms: _100  and  _102
REMARK   41  A    between atoms: _102  and  _103
REMARK   42  A    between atoms: _102  and  _105
REMARK   43  A    between atoms: _105  and  _106
REMARK   44  A    between atoms: _109  and  _111
REMARK   45  A    between atoms: _111  and  _112
REMARK   46  A    between atoms: _111  and  _114
REMARK   47  A    between atoms: _114  and  _115
REMARK   48  A    between atoms: _117  and  _119
REMARK   49  A    between atoms: _119  and  _120
REMARK   50  A    between atoms: _119  and  _122
REMARK   51  A    between atoms: _122  and  _123
REMARK   52  A    between atoms: _123  and  _124
REMARK   53  A    between atoms: _127  and  _129
REMARK   54  A    between atoms: _129  and  _130
REMARK   55  A    between atoms: _129  and  _132
REMARK   56  A    between atoms: _132  and  _133
REMARK   57  A    between atoms: _138  and  _139
REMARK   58  A    between atoms: _141  and  _143
REMARK   59  A    between atoms: _143  and  _144
REMARK   60  A    between atoms: _143  and  _146
REMARK   61  A    between atoms: _146  and  _147
REMARK   62  A    between atoms: _147  and  _148
REMARK   63  A    between atoms: _148  and  _149
REMARK   64  A    between atoms: _149  and  _150
REMARK   65  A    between atoms: _154  and  _156
REMARK   66  A    between atoms: _156  and  _157
REMARK   67  A    between atoms: _156  and  _159
REMARK   68  A    between atoms: _159  and  _160
REMARK   69  A    between atoms: _163  and  _165
REMARK   70  A    between atoms: _165  and  _166
REMARK   71  A    between atoms: _165  and  _168
REMARK   72  A    between atoms: _168  and  _169
REMARK   73  A    between atoms: _175  and  _177
REMARK   74  A    between atoms: _177  and  _178
REMARK   75  A    between atoms: _177  and  _180
REMARK   76  A    between atoms: _183  and  _185
REMARK   77  A    between atoms: _185  and  _186
REMARK   78  A    between atoms: _185  and  _188
REMARK   79  A    between atoms: _188  and  _189
REMARK   80  A    between atoms: _192  and  _194
REMARK   81  A    between atoms: _194  and  _195
REMARK   82  A    between atoms: _194  and  _197
REMARK   83  A    between atoms: _197  and  _198
REMARK   84  A    between atoms: _198  and  _199
REMARK   85  A    between atoms: _199  and  _200
REMARK   86  A    between atoms: _210  and  _211
REMARK   87  A    between atoms: _216  and  _218
REMARK   88  A    between atoms: _218  and  _219
REMARK   89  A    between atoms: _218  and  _221
REMARK   90  A    between atoms: _221  and  _222
REMARK   91  A    between atoms: _222  and  _223
REMARK   92  A    between atoms: _226  and  _228
REMARK   93  A    between atoms: _228  and  _229
REMARK   94  A    between atoms: _228  and  _231
REMARK   95  A    between atoms: _231  and  _232
REMARK   96  A    between atoms: _232  and  _233
REMARK   97  A    between atoms: _236  and  _238
REMARK   98  A    between atoms: _238  and  _239
REMARK   99  A    between atoms: _238  and  _241
REMARK  100  A    between atoms: _241  and  _242
REMARK  101  A    between atoms: _242  and  _243
REMARK  102  A    between atoms: _246  and  _248
REMARK  103  A    between atoms: _248  and  _249
REMARK  104  A    between atoms: _248  and  _251
REMARK  105  A    between atoms: _251  and  _252
REMARK  106  A    between atoms: _254  and  _256
REMARK  107  A    between atoms: _256  and  _257
REMARK  108  A    between atoms: _256  and  _259
REMARK  109  A    between atoms: _259  and  _260
REMARK  110  A    between atoms: _266  and  _268
REMARK  111  A    between atoms: _268  and  _269
REMARK  112  A    between atoms: _268  and  _271
REMARK  113  A    between atoms: _271  and  _272
REMARK  114  A    between atoms: _275  and  _277
REMARK  115  A    between atoms: _277  and  _278
REMARK  116  A    between atoms: _281  and  _283
REMARK  117  A    between atoms: _283  and  _284
REMARK  118  A    between atoms: _283  and  _286
REMARK  119  A    between atoms: _286  and  _287
REMARK  120  A    between atoms: _287  and  _288
REMARK  121  A    between atoms: _291  and  _293
REMARK  122  A    between atoms: _293  and  _294
REMARK  123  A    between atoms: _293  and  _296
REMARK  124  A    between atoms: _296  and  _297
REMARK  125  A    between atoms: _302  and  _303
REMARK  126  A    between atoms: _305  and  _307
REMARK  127  A    between atoms: _307  and  _308
REMARK  128  A    between atoms: _307  and  _310
REMARK  129  A    between atoms: _310  and  _311
REMARK  130  A    between atoms: _316  and  _318
REMARK  131  A    between atoms: _318  and  _319
REMARK  132  A    between atoms: _318  and  _321
REMARK  133  A    between atoms: _321  and  _322
REMARK  134  A    between atoms: _325  and  _327
REMARK  135  A    between atoms: _327  and  _328
REMARK  136  A    between atoms: _327  and  _330
REMARK  137  A    between atoms: _330  and  _331
REMARK  138  A    between atoms: _331  and  _332
REMARK  139  A    between atoms: _335  and  _337
REMARK  140  A    between atoms: _337  and  _338
REMARK                            x       y       z     vdW  Elec       q    Type
REMARK                         _______ _______ _______ _____ _____    ______ ____
ROOT
ATOM      1  CG  TYR A   1      44.522  24.021 -49.049  0.00  0.00    -0.020 A 
ATOM      2  CD2 TYR A   1      43.447  24.340 -48.203  0.00  0.00    -0.001 A 
ATOM      3  CE2 TYR A   1      42.314  25.018 -48.673  0.00  0.00    +0.036 A 
ATOM      4  CZ  TYR A   1      42.238  25.391 -50.017  0.00  0.00    +0.134 A 
ATOM      5  CE1 TYR A   1      43.282  25.099 -50.876  0.00  0.00    +0.036 A 
ATOM      6  CD1 TYR A   1      44.435  24.411 -50.390  0.00  0.00    -0.001 A 
ENDROOT
BRANCH   4   7
ATOM      7  OH  TYR A   1      41.098  26.042 -50.477  0.00  0.00    -0.506 OA
ATOM      8  HH  TYR A   1      40.464  26.165 -49.727  0.00  0.00    +0.292 HD
ENDBRANCH   4   7
BRANCH   1   9
ATOM      9  CB  TYR A   1      45.731  23.238 -48.522  0.00  0.00    +0.051 C 
BRANCH   9  10
ATOM     10  CA  TYR A   1      46.101  21.972 -49.327  0.00  0.00    +0.137 C 
BRANCH  10  11
ATOM     11  N   TYR A   1      45.143  20.889 -49.103  0.00  0.00    -0.239 NA
ATOM     12  H   TYR A   1      44.408  20.976 -48.372  0.00  0.00    +0.142 HD
ENDBRANCH  10  11
BRANCH  10  13
ATOM     13  C   TYR A   1      47.523  21.489 -48.968  0.00  0.00    +0.224 C 
ATOM     14  O   TYR A   1      48.478  21.811 -49.666  0.00  0.00    -0.287 OA
ENDBRANCH  10  13
ENDBRANCH   9  10
ENDBRANCH   1   9
TORSDOF 5
REMARK  Name = ../refined-set-2016/2ri9/2ri9_pocket.pdb
REMARK  140 active torsions:
REMARK  status: ('A' for Active; 'I' for Inactive)
REMARK    1  A    between atoms: _1  and  _3
REMARK    2  A    between atoms: _3  and  _4
REMARK    3  A    between atoms: _3  and  _6
REMARK    4  A    between atoms: _6  and  _7
REMARK    5  A    between atoms: _7  and  _8
REMARK    6  A    between atoms: _8  and  _9
REMARK    7  A    between atoms: _18  and  _20
REMARK    8  A    between atoms: _20  and  _21
REMARK    9  A    between atoms: _20  and  _23
REMARK   10  A    between atoms: _23  and  _24
REMARK   11  A    between atoms: _27  and  _29
REMARK   12  A    between atoms: _29  and  _30
REMARK   13  A    between atoms: _29  and  _32
REMARK   14  A    between atoms: _32  and  _33
REMARK   15  A    between atoms: _39  and  _41
REMARK   16  A    between atoms: _41  and  _42
REMARK   17  A    between atoms: _41  and  _44
REMARK   18  A    between atoms: _44  and  _45
REMARK   19  A    between atoms: _45  and  _46
REMARK   20  A    between atoms: _49  and  _51
REMARK   21  A    between atoms: _51  and  _52
REMARK   22  A    between atoms: _51  and  _54
REMARK   23  A    between atoms: _54  and  _55
REMARK   24  A    between atoms: _58  and  _60
REMARK   25  A    between atoms: _60  and  _61
REMARK   26  A    between atoms: _60  and  _63
REMARK   27  A    between atoms: _63  and  _64
REMARK   28  A    between atoms: _64  and  _65
REMARK   29  A    between atoms: _65  and  _66
REMARK   30  A    between atoms: _75  and  _77
REMARK   31  A    between atoms: _77  and  _78
REMARK   32  A    between atoms: _81  and  _83
REMARK   33  A    between atoms: _83  and  _84
REMARK   34  A    between atoms: _83  and  _86
REMARK   35  A    between atoms: _86  and  _87
REMARK   36  A    between atoms: _90  and  _92
REMARK   37  A    between atoms: _92  and  _93
REMARK   38  A    between atoms: _95  and  _97
REMARK   39  A    between atoms: _97  and  _98
REMARK   40  A    between atoms: _100  and  _102
REMARK   41  A    between atoms: _102  and  _103
REMARK   42  A    between atoms: _102  and  _105
REMARK   43  A    between atoms: _105  and  _106
REMARK   44  A    between atoms: _109  and  _111
REMARK   45  A    between atoms: _111  and  _112
REMARK   46  A    between atoms: _111  and  _114
REMARK   47  A    between atoms: _114  and  _115
REMARK   48  A    between atoms: _117  and  _119
REMARK   49  A    between atoms: _119  and  _120
REMARK   50  A    between atoms: _119  and  _122
REMARK   51  A    between atoms: _122  and  _123
REMARK   52  A    between atoms: _123  and  _124
REMARK   53  A    between atoms: _127  and  _129
REMARK   54  A    between atoms: _129  and  _130
REMARK   55  A    between atoms: _129  and  _132
REMARK   56  A    between atoms: _132  and  _133
REMARK   57  A    between atoms: _138  and  _139
REMARK   58  A    between atoms: _141  and  _143
REMARK   59  A    between atoms: _143  and  _144
REMARK   60  A    between atoms: _143  and  _146
REMARK   61  A    between atoms: _146  and  _147
REMARK   62  A    between atoms: _147  and  _148
REMARK   63  A    between atoms: _148  and  _149
REMARK   64  A    between atoms: _149  and  _150
REMARK   65  A    between atoms: _154  and  _156
REMARK   66  A    between atoms: _156  and  _157
REMARK   67  A    between atoms: _156  and  _159
REMARK   68  A    between atoms: _159  and  _160
REMARK   69  A    between atoms: _163  and  _165
REMARK   70  A    between atoms: _165  and  _166
REMARK   71  A    between atoms: _165  and  _168
REMARK   72  A    between atoms: _168  and  _169
REMARK   73  A    between atoms: _175  and  _177
REMARK   74  A    between atoms: _177  and  _178
REMARK   75  A    between atoms: _177  and  _180
REMARK   76  A    between atoms: _183  and  _185
REMARK   77  A    between atoms: _185  and  _186
REMARK   78  A    between atoms: _185  and  _188
REMARK   79  A    between atoms: _188  and  _189
REMARK   80  A    between atoms: _192  and  _194
REMARK   81  A    between atoms: _194  and  _195
REMARK   82  A    between atoms: _194  and  _197
REMARK   83  A    between atoms: _197  and  _198
REMARK   84  A    between atoms: _198  and  _199
REMARK   85  A    between atoms: _199  and  _200
REMARK   86  A    between atoms: _210  and  _211
REMARK   87  A    between atoms: _216  and  _218
REMARK   88  A    between atoms: _218  and  _219
REMARK   89  A    between atoms: _218  and  _221
REMARK   90  A    between atoms: _221  and  _222
REMARK   91  A    between atoms: _222  and  _223
REMARK   92  A    between atoms: _226  and  _228
REMARK   93  A    between atoms: _228  and  _229
REMARK   94  A    between atoms: _228  and  _231
REMARK   95  A    between atoms: _231  and  _232
REMARK   96  A    between atoms: _232  and  _233
REMARK   97  A    between atoms: _236  and  _238
REMARK   98  A    between atoms: _238  and  _239
REMARK   99  A    between atoms: _238  and  _241
REMARK  100  A    between atoms: _241  and  _242
REMARK  101  A    between atoms: _242  and  _243
REMARK  102  A    between atoms: _246  and  _248
REMARK  103  A    between atoms: _248  and  _249
REMARK  104  A    between atoms: _248  and  _251
REMARK  105  A    between atoms: _251  and  _252
REMARK  106  A    between atoms: _254  and  _256
REMARK  107  A    between atoms: _256  and  _257
REMARK  108  A    between atoms: _256  and  _259
REMARK  109  A    between atoms: _259  and  _260
REMARK  110  A    between atoms: _266  and  _268
REMARK  111  A    between atoms: _268  and  _269
REMARK  112  A    between atoms: _268  and  _271
REMARK  113  A    between atoms: _271  and  _272
REMARK  114  A    between atoms: _275  and  _277
REMARK  115  A    between atoms: _277  and  _278
REMARK  116  A    between atoms: _281  and  _283
REMARK  117  A    between atoms: _283  and  _284
REMARK  118  A    between atoms: _283  and  _286
REMARK  119  A    between atoms: _286  and  _287
REMARK  120  A    between atoms: _287  and  _288
REMARK  121  A    between atoms: _291  and  _293
REMARK  122  A    between atoms: _293  and  _294
REMARK  123  A    between atoms: _293  and  _296
REMARK  124  A    between atoms: _296  and  _297
REMARK  125  A    between atoms: _302  and  _303
REMARK  126  A    between atoms: _305  and  _307
REMARK  127  A    between atoms: _307  and  _308
REMARK  128  A    between atoms: _307  and  _310
REMARK  129  A    between atoms: _310  and  _311
REMARK  130  A    between atoms: _316  and  _318
REMARK  131  A    between atoms: _318  and  _319
REMARK  132  A    between atoms: _318  and  _321
REMARK  133  A    between atoms: _321  and  _322
REMARK  134  A    between atoms: _325  and  _327
REMARK  135  A    between atoms: _327  and  _328
REMARK  136  A    between atoms: _327  and  _330
REMARK  137  A    between atoms: _330  and  _331
REMARK  138  A    between atoms: _331  and  _332
REMARK  139  A    between atoms: _335  and  _337
REMARK  140  A    between atoms: _337  and  _338
REMARK                            x       y       z     vdW  Elec       q    Type
REMARK                         _______ _______ _______ _____ _____    ______ ____
ROOT
ATOM      1  CA  THR A   2      35.344  27.848 -49.496  0.00  0.00    +0.176 C 
ENDROOT
BRANCH   1   3
ATOM      2  C   ASN A   1      35.542  27.057 -51.786  0.00  0.00    +0.239 C 
ATOM      3  N   THR A   2      34.773  27.531 -50.804  0.00  0.00    -0.295 N 
ATOM      4  H   THR A   2      33.757  27.676 -50.971  0.00  0.00    +0.150 HD
ATOM      5  O   ASN A   1      36.741  26.796 -51.631  0.00  0.00    -0.274 OA
BRANCH   2   6
ATOM      6  CA  ASN A   1      34.909  26.836 -53.172  0.00  0.00    +0.154 C 
BRANCH   6   7
ATOM      7  N   ASN A   1      36.023  26.303 -53.956  0.00  0.00    -0.238 NA
ATOM      8  H   ASN A   1      36.088  25.276 -54.107  0.00  0.00    +0.142 HD
ENDBRANCH   6   7
BRANCH   6   9
ATOM      9  CB  ASN A   1      33.712  25.845 -53.142  0.00  0.00    +0.111 C 
BRANCH   9  10
ATOM     10  CG  ASN A   1      33.628  25.015 -51.870  0.00  0.00    +0.221 C 
ATOM     11  ND2 ASN A   1      32.451  25.033 -51.219  0.00  0.00    -0.329 N 
ATOM     12 HD21 ASN A   1      32.327  24.471 -50.352  0.00  0.00    +0.145 HD
ATOM     13 HD22 ASN A   1      31.665  25.609 -51.582  0.00  0.00    +0.145 HD
ATOM     14  OD1 ASN A   1      34.577  24.356 -51.482  0.00  0.00    -0.275 OA
ENDBRANCH   9  10
ENDBRANCH   6   9
ENDBRANCH   2   6
ENDBRANCH   1   3
BRANCH   1  15
ATOM     15  C   THR A   2      35.626  26.617 -48.601  0.00  0.00    +0.243 C 
ATOM     16  O   THR A   2      36.114  26.765 -47.497  0.00  0.00    -0.273 OA
ATOM     17  N   GLU A   3      35.302  25.413 -49.091  0.00  0.00    -0.297 N 
ATOM     18  H   GLU A   3      34.840  25.353 -50.021  0.00  0.00    +0.150 HD
BRANCH  17  19
ATOM     19  CA  GLU A   3      35.583  24.170 -48.347  0.00  0.00    +0.149 C 
BRANCH  19  20
ATOM     20  C   GLU A   3      36.671  23.399 -49.123  0.00  0.00    +0.241 C 
ATOM     21  O   GLU A   3      36.782  22.196 -48.981  0.00  0.00    -0.273 OA
ATOM     22  N   ALA A   4      37.439  24.095 -49.962  0.00  0.00    -0.298 N 
ATOM     23  H   ALA A   4      37.266  25.117 -50.053  0.00  0.00    +0.150 HD
BRANCH  22  24
ATOM     24  CA  ALA A   4      38.521  23.496 -50.769  0.00  0.00    +0.137 C 
ATOM     25  CB  ALA A   4      39.591  22.818 -49.848  0.00  0.00    +0.030 C 
BRANCH  24  26
ATOM     26  C   ALA A   4      38.071  22.503 -51.866  0.00  0.00    +0.227 C 
ATOM     27  O   ALA A   4      38.836  21.632 -52.285  0.00  0.00    -0.286 OA
ENDBRANCH  24  26
ENDBRANCH  22  24
ENDBRANCH  19  20
BRANCH  19  28
ATOM     28  CB  GLU A   3      34.306  23.294 -48.238  0.00  0.00    +0.041 C 
BRANCH  28  29
ATOM     29  CG  GLU A   3      34.389  22.053 -47.319  0.00  0.00    +0.116 C 
BRANCH  29  30
ATOM     30  CD  GLU A   3      34.067  22.348 -45.861  0.00  0.00    +0.365 C 
ATOM     31  OE2 GLU A   3      33.982  21.403 -45.030  0.00  0.00    -0.246 OA
ATOM     32  OE1 GLU A   3      33.866  23.519 -45.514  0.00  0.00    -0.246 OA
ENDBRANCH  29  30
ENDBRANCH  28  29
ENDBRANCH  19  28
ENDBRANCH  17  19
ENDBRANCH   1  15
BRANCH   1  33
ATOM     33  CB  THR A   2      34.428  28.889 -48.765  0.00  0.00    +0.137 C 
ATOM     34  CG2 THR A   2      33.190  28.208 -48.177  0.00  0.00    +0.034 C 
BRANCH  33  35
ATOM     35  OG1 THR A   2      35.165  29.590 -47.733  0.00  0.00    -0.382 OA
ATOM     36  HG1 THR A   2      35.929  30.069 -48.142  0.00  0.00    +0.210 HD
ENDBRANCH  33  35
ENDBRANCH   1  33
TORSDOF 15
REMARK  Name = ../refined-set-2016/2ri9/2ri9_pocket.pdb
REMARK  140 active torsions:
REMARK  status: ('A' for Active; 'I' for Inactive)
REMARK    1  A    between atoms: _1  and  _3
REMARK    2  A    between atoms: _3  and  _4
REMARK    3  A    between atoms: _3  and  _6
REMARK    4  A    between atoms: _6  and  _7
REMARK    5  A    between atoms: _7  and  _8
REMARK    6  A    between atoms: _8  and  _9
REMARK    7  A    between atoms: _18  and  _20
REMARK    8  A    between atoms: _20  and  _21
REMARK    9  A    between atoms: _20  and  _23
REMARK   10  A    between atoms: _23  and  _24
REMARK   11  A    between atoms: _27  and  _29
REMARK   12  A    between atoms: _29  and  _30
REMARK   13  A    between atoms: _29  and  _32
REMARK   14  A    between atoms: _32  and  _33
REMARK   15  A    between atoms: _39  and  _41
REMARK   16  A    between atoms: _41  and  _42
REMARK   17  A    between atoms: _41  and  _44
REMARK   18  A    between atoms: _44  and  _45
REMARK   19  A    between atoms: _45  and  _46
REMARK   20  A    between atoms: _49  and  _51
REMARK   21  A    between atoms: _51  and  _52
REMARK   22  A    between atoms: _51  and  _54
REMARK   23  A    between atoms: _54  and  _55
REMARK   24  A    between atoms: _58  and  _60
REMARK   25  A    between atoms: _60  and  _61
REMARK   26  A    between atoms: _60  and  _63
REMARK   27  A    between atoms: _63  and  _64
REMARK   28  A    between atoms: _64  and  _65
REMARK   29  A    between atoms: _65  and  _66
REMARK   30  A    between atoms: _75  and  _77
REMARK   31  A    between atoms: _77  and  _78
REMARK   32  A    between atoms: _81  and  _83
REMARK   33  A    between atoms: _83  and  _84
REMARK   34  A    between atoms: _83  and  _86
REMARK   35  A    between atoms: _86  and  _87
REMARK   36  A    between atoms: _90  and  _92
REMARK   37  A    between atoms: _92  and  _93
REMARK   38  A    between atoms: _95  and  _97
REMARK   39  A    between atoms: _97  and  _98
REMARK   40  A    between atoms: _100  and  _102
REMARK   41  A    between atoms: _102  and  _103
REMARK   42  A    between atoms: _102  and  _105
REMARK   43  A    between atoms: _105  and  _106
REMARK   44  A    between atoms: _109  and  _111
REMARK   45  A    between atoms: _111  and  _112
REMARK   46  A    between atoms: _111  and  _114
REMARK   47  A    between atoms: _114  and  _115
REMARK   48  A    between atoms: _117  and  _119
REMARK   49  A    between atoms: _119  and  _120
REMARK   50  A    between atoms: _119  and  _122
REMARK   51  A    between atoms: _122  and  _123
REMARK   52  A    between atoms: _123  and  _124
REMARK   53  A    between atoms: _127  and  _129
REMARK   54  A    between atoms: _129  and  _130
REMARK   55  A    between atoms: _129  and  _132
REMARK   56  A    between atoms: _132  and  _133
REMARK   57  A    between atoms: _138  and  _139
REMARK   58  A    between atoms: _141  and  _143
REMARK   59  A    between atoms: _143  and  _144
REMARK   60  A    between atoms: _143  and  _146
REMARK   61  A    between atoms: _146  and  _147
REMARK   62  A    between atoms: _147  and  _148
REMARK   63  A    between atoms: _148  and  _149
REMARK   64  A    between atoms: _149  and  _150
REMARK   65  A    between atoms: _154  and  _156
REMARK   66  A    between atoms: _156  and  _157
REMARK   67  A    between atoms: _156  and  _159
REMARK   68  A    between atoms: _159  and  _160
REMARK   69  A    between atoms: _163  and  _165
REMARK   70  A    between atoms: _165  and  _166
REMARK   71  A    between atoms: _165  and  _168
REMARK   72  A    between atoms: _168  and  _169
REMARK   73  A    between atoms: _175  and  _177
REMARK   74  A    between atoms: _177  and  _178
REMARK   75  A    between atoms: _177  and  _180
REMARK   76  A    between atoms: _183  and  _185
REMARK   77  A    between atoms: _185  and  _186
REMARK   78  A    between atoms: _185  and  _188
REMARK   79  A    between atoms: _188  and  _189
REMARK   80  A    between atoms: _192  and  _194
REMARK   81  A    between atoms: _194  and  _195
REMARK   82  A    between atoms: _194  and  _197
REMARK   83  A    between atoms: _197  and  _198
REMARK   84  A    between atoms: _198  and  _199
REMARK   85  A    between atoms: _199  and  _200
REMARK   86  A    between atoms: _210  and  _211
REMARK   87  A    between atoms: _216  and  _218
REMARK   88  A    between atoms: _218  and  _219
REMARK   89  A    between atoms: _218  and  _221
REMARK   90  A    between atoms: _221  and  _222
REMARK   91  A    between atoms: _222  and  _223
REMARK   92  A    between atoms: _226  and  _228
REMARK   93  A    between atoms: _228  and  _229
REMARK   94  A    between atoms: _228  and  _231
REMARK   95  A    between atoms: _231  and  _232
REMARK   96  A    between atoms: _232  and  _233
REMARK   97  A    between atoms: _236  and  _238
REMARK   98  A    between atoms: _238  and  _239
REMARK   99  A    between atoms: _238  and  _241
REMARK  100  A    between atoms: _241  and  _242
REMARK  101  A    between atoms: _242  and  _243
REMARK  102  A    between atoms: _246  and  _248
REMARK  103  A    between atoms: _248  and  _249
REMARK  104  A    between atoms: _248  and  _251
REMARK  105  A    between atoms: _251  and  _252
REMARK  106  A    between atoms: _254  and  _256
REMARK  107  A    between atoms: _256  and  _257
REMARK  108  A    between atoms: _256  and  _259
REMARK  109  A    between atoms: _259  and  _260
REMARK  110  A    between atoms: _266  and  _268
REMARK  111  A    between atoms: _268  and  _269
REMARK  112  A    between atoms: _268  and  _271
REMARK  113  A    between atoms: _271  and  _272
REMARK  114  A    between atoms: _275  and  _277
REMARK  115  A    between atoms: _277  and  _278
REMARK  116  A    between atoms: _281  and  _283
REMARK  117  A    between atoms: _283  and  _284
REMARK  118  A    between atoms: _283  and  _286
REMARK  119  A    between atoms: _286  and  _287
REMARK  120  A    between atoms: _287  and  _288
REMARK  121  A    between atoms: _291  and  _293
REMARK  122  A    between atoms: _293  and  _294
REMARK  123  A    between atoms: _293  and  _296
REMARK  124  A    between atoms: _296  and  _297
REMARK  125  A    between atoms: _302  and  _303
REMARK  126  A    between atoms: _305  and  _307
REMARK  127  A    between atoms: _307  and  _308
REMARK  128  A    between atoms: _307  and  _310
REMARK  129  A    between atoms: _310  and  _311
REMARK  130  A    between atoms: _316  and  _318
REMARK  131  A    between atoms: _318  and  _319
REMARK  132  A    between atoms: _318  and  _321
REMARK  133  A    between atoms: _321  and  _322
REMARK  134  A    between atoms: _325  and  _327
REMARK  135  A    between atoms: _327  and  _328
REMARK  136  A    between atoms: _327  and  _330
REMARK  137  A    between atoms: _330  and  _331
REMARK  138  A    between atoms: _331  and  _332
REMARK  139  A    between atoms: _335  and  _337
REMARK  140  A    between atoms: _337  and  _338
REMARK                            x       y       z     vdW  Elec       q    Type
REMARK                         _______ _______ _______ _____ _____    ______ ____
ROOT
ATOM      1 CA   UNL     1      36.853  28.668 -46.011  0.00  0.00    +0.000 Ca
ATOM      2  O   UNL     1      37.064  29.392 -43.642  0.00  0.00    +0.000 OA
ATOM      3  O   UNL     1      39.033  27.512 -45.650  0.00  0.00    +0.000 OA
ENDROOT
TORSDOF 0
REMARK  Name = ../refined-set-2016/2ri9/2ri9_pocket.pdb
REMARK  140 active torsions:
REMARK  status: ('A' for Active; 'I' for Inactive)
REMARK    1  A    between atoms: _1  and  _3
REMARK    2  A    between atoms: _3  and  _4
REMARK    3  A    between atoms: _3  and  _6
REMARK    4  A    between atoms: _6  and  _7
REMARK    5  A    between atoms: _7  and  _8
REMARK    6  A    between atoms: _8  and  _9
REMARK    7  A    between atoms: _18  and  _20
REMARK    8  A    between atoms: _20  and  _21
REMARK    9  A    between atoms: _20  and  _23
REMARK   10  A    between atoms: _23  and  _24
REMARK   11  A    between atoms: _27  and  _29
REMARK   12  A    between atoms: _29  and  _30
REMARK   13  A    between atoms: _29  and  _32
REMARK   14  A    between atoms: _32  and  _33
REMARK   15  A    between atoms: _39  and  _41
REMARK   16  A    between atoms: _41  and  _42
REMARK   17  A    between atoms: _41  and  _44
REMARK   18  A    between atoms: _44  and  _45
REMARK   19  A    between atoms: _45  and  _46
REMARK   20  A    between atoms: _49  and  _51
REMARK   21  A    between atoms: _51  and  _52
REMARK   22  A    between atoms: _51  and  _54
REMARK   23  A    between atoms: _54  and  _55
REMARK   24  A    between atoms: _58  and  _60
REMARK   25  A    between atoms: _60  and  _61
REMARK   26  A    between atoms: _60  and  _63
REMARK   27  A    between atoms: _63  and  _64
REMARK   28  A    between atoms: _64  and  _65
REMARK   29  A    between atoms: _65  and  _66
REMARK   30  A    between atoms: _75  and  _77
REMARK   31  A    between atoms: _77  and  _78
REMARK   32  A    between atoms: _81  and  _83
REMARK   33  A    between atoms: _83  and  _84
REMARK   34  A    between atoms: _83  and  _86
REMARK   35  A    between atoms: _86  and  _87
REMARK   36  A    between atoms: _90  and  _92
REMARK   37  A    between atoms: _92  and  _93
REMARK   38  A    between atoms: _95  and  _97
REMARK   39  A    between atoms: _97  and  _98
REMARK   40  A    between atoms: _100  and  _102
REMARK   41  A    between atoms: _102  and  _103
REMARK   42  A    between atoms: _102  and  _105
REMARK   43  A    between atoms: _105  and  _106
REMARK   44  A    between atoms: _109  and  _111
REMARK   45  A    between atoms: _111  and  _112
REMARK   46  A    between atoms: _111  and  _114
REMARK   47  A    between atoms: _114  and  _115
REMARK   48  A    between atoms: _117  and  _119
REMARK   49  A    between atoms: _119  and  _120
REMARK   50  A    between atoms: _119  and  _122
REMARK   51  A    between atoms: _122  and  _123
REMARK   52  A    between atoms: _123  and  _124
REMARK   53  A    between atoms: _127  and  _129
REMARK   54  A    between atoms: _129  and  _130
REMARK   55  A    between atoms: _129  and  _132
REMARK   56  A    between atoms: _132  and  _133
REMARK   57  A    between atoms: _138  and  _139
REMARK   58  A    between atoms: _141  and  _143
REMARK   59  A    between atoms: _143  and  _144
REMARK   60  A    between atoms: _143  and  _146
REMARK   61  A    between atoms: _146  and  _147
REMARK   62  A    between atoms: _147  and  _148
REMARK   63  A    between atoms: _148  and  _149
REMARK   64  A    between atoms: _149  and  _150
REMARK   65  A    between atoms: _154  and  _156
REMARK   66  A    between atoms: _156  and  _157
REMARK   67  A    between atoms: _156  and  _159
REMARK   68  A    between atoms: _159  and  _160
REMARK   69  A    between atoms: _163  and  _165
REMARK   70  A    between atoms: _165  and  _166
REMARK   71  A    between atoms: _165  and  _168
REMARK   72  A    between atoms: _168  and  _169
REMARK   73  A    between atoms: _175  and  _177
REMARK   74  A    between atoms: _177  and  _178
REMARK   75  A    between atoms: _177  and  _180
REMARK   76  A    between atoms: _183  and  _185
REMARK   77  A    between atoms: _185  and  _186
REMARK   78  A    between atoms: _185  and  _188
REMARK   79  A    between atoms: _188  and  _189
REMARK   80  A    between atoms: _192  and  _194
REMARK   81  A    between atoms: _194  and  _195
REMARK   82  A    between atoms: _194  and  _197
REMARK   83  A    between atoms: _197  and  _198
REMARK   84  A    between atoms: _198  and  _199
REMARK   85  A    between atoms: _199  and  _200
REMARK   86  A    between atoms: _210  and  _211
REMARK   87  A    between atoms: _216  and  _218
REMARK   88  A    between atoms: _218  and  _219
REMARK   89  A    between atoms: _218  and  _221
REMARK   90  A    between atoms: _221  and  _222
REMARK   91  A    between atoms: _222  and  _223
REMARK   92  A    between atoms: _226  and  _228
REMARK   93  A    between atoms: _228  and  _229
REMARK   94  A    between atoms: _228  and  _231
REMARK   95  A    between atoms: _231  and  _232
REMARK   96  A    between atoms: _232  and  _233
REMARK   97  A    between atoms: _236  and  _238
REMARK   98  A    between atoms: _238  and  _239
REMARK   99  A    between atoms: _238  and  _241
REMARK  100  A    between atoms: _241  and  _242
REMARK  101  A    between atoms: _242  and  _243
REMARK  102  A    between atoms: _246  and  _248
REMARK  103  A    between atoms: _248  and  _249
REMARK  104  A    between atoms: _248  and  _251
REMARK  105  A    between atoms: _251  and  _252
REMARK  106  A    between atoms: _254  and  _256
REMARK  107  A    between atoms: _256  and  _257
REMARK  108  A    between atoms: _256  and  _259
REMARK  109  A    between atoms: _259  and  _260
REMARK  110  A    between atoms: _266  and  _268
REMARK  111  A    between atoms: _268  and  _269
REMARK  112  A    between atoms: _268  and  _271
REMARK  113  A    between atoms: _271  and  _272
REMARK  114  A    between atoms: _275  and  _277
REMARK  115  A    between atoms: _277  and  _278
REMARK  116  A    between atoms: _281  and  _283
REMARK  117  A    between atoms: _283  and  _284
REMARK  118  A    between atoms: _283  and  _286
REMARK  119  A    between atoms: _286  and  _287
REMARK  120  A    between atoms: _287  and  _288
REMARK  121  A    between atoms: _291  and  _293
REMARK  122  A    between atoms: _293  and  _294
REMARK  123  A    between atoms: _293  and  _296
REMARK  124  A    between atoms: _296  and  _297
REMARK  125  A    between atoms: _302  and  _303
REMARK  126  A    between atoms: _305  and  _307
REMARK  127  A    between atoms: _307  and  _308
REMARK  128  A    between atoms: _307  and  _310
REMARK  129  A    between atoms: _310  and  _311
REMARK  130  A    between atoms: _316  and  _318
REMARK  131  A    between atoms: _318  and  _319
REMARK  132  A    between atoms: _318  and  _321
REMARK  133  A    between atoms: _321  and  _322
REMARK  134  A    between atoms: _325  and  _327
REMARK  135  A    between atoms: _327  and  _328
REMARK  136  A    between atoms: _327  and  _330
REMARK  137  A    between atoms: _330  and  _331
REMARK  138  A    between atoms: _331  and  _332
REMARK  139  A    between atoms: _335  and  _337
REMARK  140  A    between atoms: _337  and  _338
REMARK                            x       y       z     vdW  Elec       q    Type
REMARK                         _______ _______ _______ _____ _____    ______ ____
ROOT
ATOM      1  O   HOH     1      31.850  17.796 -39.622  0.00  0.00    +0.000 OA
ENDROOT
TORSDOF 0
REMARK  Name = ../refined-set-2016/2ri9/2ri9_pocket.pdb
REMARK  140 active torsions:
REMARK  status: ('A' for Active; 'I' for Inactive)
REMARK    1  A    between atoms: _1  and  _3
REMARK    2  A    between atoms: _3  and  _4
REMARK    3  A    between atoms: _3  and  _6
REMARK    4  A    between atoms: _6  and  _7
REMARK    5  A    between atoms: _7  and  _8
REMARK    6  A    between atoms: _8  and  _9
REMARK    7  A    between atoms: _18  and  _20
REMARK    8  A    between atoms: _20  and  _21
REMARK    9  A    between atoms: _20  and  _23
REMARK   10  A    between atoms: _23  and  _24
REMARK   11  A    between atoms: _27  and  _29
REMARK   12  A    between atoms: _29  and  _30
REMARK   13  A    between atoms: _29  and  _32
REMARK   14  A    between atoms: _32  and  _33
REMARK   15  A    between atoms: _39  and  _41
REMARK   16  A    between atoms: _41  and  _42
REMARK   17  A    between atoms: _41  and  _44
REMARK   18  A    between atoms: _44  and  _45
REMARK   19  A    between atoms: _45  and  _46
REMARK   20  A    between atoms: _49  and  _51
REMARK   21  A    between atoms: _51  and  _52
REMARK   22  A    between atoms: _51  and  _54
REMARK   23  A    between atoms: _54  and  _55
REMARK   24  A    between atoms: _58  and  _60
REMARK   25  A    between atoms: _60  and  _61
REMARK   26  A    between atoms: _60  and  _63
REMARK   27  A    between atoms: _63  and  _64
REMARK   28  A    between atoms: _64  and  _65
REMARK   29  A    between atoms: _65  and  _66
REMARK   30  A    between atoms: _75  and  _77
REMARK   31  A    between atoms: _77  and  _78
REMARK   32  A    between atoms: _81  and  _83
REMARK   33  A    between atoms: _83  and  _84
REMARK   34  A    between atoms: _83  and  _86
REMARK   35  A    between atoms: _86  and  _87
REMARK   36  A    between atoms: _90  and  _92
REMARK   37  A    between atoms: _92  and  _93
REMARK   38  A    between atoms: _95  and  _97
REMARK   39  A    between atoms: _97  and  _98
REMARK   40  A    between atoms: _100  and  _102
REMARK   41  A    between atoms: _102  and  _103
REMARK   42  A    between atoms: _102  and  _105
REMARK   43  A    between atoms: _105  and  _106
REMARK   44  A    between atoms: _109  and  _111
REMARK   45  A    between atoms: _111  and  _112
REMARK   46  A    between atoms: _111  and  _114
REMARK   47  A    between atoms: _114  and  _115
REMARK   48  A    between atoms: _117  and  _119
REMARK   49  A    between atoms: _119  and  _120
REMARK   50  A    between atoms: _119  and  _122
REMARK   51  A    between atoms: _122  and  _123
REMARK   52  A    between atoms: _123  and  _124
REMARK   53  A    between atoms: _127  and  _129
REMARK   54  A    between atoms: _129  and  _130
REMARK   55  A    between atoms: _129  and  _132
REMARK   56  A    between atoms: _132  and  _133
REMARK   57  A    between atoms: _138  and  _139
REMARK   58  A    between atoms: _141  and  _143
REMARK   59  A    between atoms: _143  and  _144
REMARK   60  A    between atoms: _143  and  _146
REMARK   61  A    between atoms: _146  and  _147
REMARK   62  A    between atoms: _147  and  _148
REMARK   63  A    between atoms: _148  and  _149
REMARK   64  A    between atoms: _149  and  _150
REMARK   65  A    between atoms: _154  and  _156
REMARK   66  A    between atoms: _156  and  _157
REMARK   67  A    between atoms: _156  and  _159
REMARK   68  A    between atoms: _159  and  _160
REMARK   69  A    between atoms: _163  and  _165
REMARK   70  A    between atoms: _165  and  _166
REMARK   71  A    between atoms: _165  and  _168
REMARK   72  A    between atoms: _168  and  _169
REMARK   73  A    between atoms: _175  and  _177
REMARK   74  A    between atoms: _177  and  _178
REMARK   75  A    between atoms: _177  and  _180
REMARK   76  A    between atoms: _183  and  _185
REMARK   77  A    between atoms: _185  and  _186
REMARK   78  A    between atoms: _185  and  _188
REMARK   79  A    between atoms: _188  and  _189
REMARK   80  A    between atoms: _192  and  _194
REMARK   81  A    between atoms: _194  and  _195
REMARK   82  A    between atoms: _194  and  _197
REMARK   83  A    between atoms: _197  and  _198
REMARK   84  A    between atoms: _198  and  _199
REMARK   85  A    between atoms: _199  and  _200
REMARK   86  A    between atoms: _210  and  _211
REMARK   87  A    between atoms: _216  and  _218
REMARK   88  A    between atoms: _218  and  _219
REMARK   89  A    between atoms: _218  and  _221
REMARK   90  A    between atoms: _221  and  _222
REMARK   91  A    between atoms: _222  and  _223
REMARK   92  A    between atoms: _226  and  _228
REMARK   93  A    between atoms: _228  and  _229
REMARK   94  A    between atoms: _228  and  _231
REMARK   95  A    between atoms: _231  and  _232
REMARK   96  A    between atoms: _232  and  _233
REMARK   97  A    between atoms: _236  and  _238
REMARK   98  A    between atoms: _238  and  _239
REMARK   99  A    between atoms: _238  and  _241
REMARK  100  A    between atoms: _241  and  _242
REMARK  101  A    between atoms: _242  and  _243
REMARK  102  A    between atoms: _246  and  _248
REMARK  103  A    between atoms: _248  and  _249
REMARK  104  A    between atoms: _248  and  _251
REMARK  105  A    between atoms: _251  and  _252
REMARK  106  A    between atoms: _254  and  _256
REMARK  107  A    between atoms: _256  and  _257
REMARK  108  A    between atoms: _256  and  _259
REMARK  109  A    between atoms: _259  and  _260
REMARK  110  A    between atoms: _266  and  _268
REMARK  111  A    between atoms: _268  and  _269
REMARK  112  A    between atoms: _268  and  _271
REMARK  113  A    between atoms: _271  and  _272
REMARK  114  A    between atoms: _275  and  _277
REMARK  115  A    between atoms: _277  and  _278
REMARK  116  A    between atoms: _281  and  _283
REMARK  117  A    between atoms: _283  and  _284
REMARK  118  A    between atoms: _283  and  _286
REMARK  119  A    between atoms: _286  and  _287
REMARK  120  A    between atoms: _287  and  _288
REMARK  121  A    between atoms: _291  and  _293
REMARK  122  A    between atoms: _293  and  _294
REMARK  123  A    between atoms: _293  and  _296
REMARK  124  A    between atoms: _296  and  _297
REMARK  125  A    between atoms: _302  and  _303
REMARK  126  A    between atoms: _305  and  _307
REMARK  127  A    between atoms: _307  and  _308
REMARK  128  A    between atoms: _307  and  _310
REMARK  129  A    between atoms: _310  and  _311
REMARK  130  A    between atoms: _316  and  _318
REMARK  131  A    between atoms: _318  and  _319
REMARK  132  A    between atoms: _318  and  _321
REMARK  133  A    between atoms: _321  and  _322
REMARK  134  A    between atoms: _325  and  _327
REMARK  135  A    between atoms: _327  and  _328
REMARK  136  A    between atoms: _327  and  _330
REMARK  137  A    between atoms: _330  and  _331
REMARK  138  A    between atoms: _331  and  _332
REMARK  139  A    between atoms: _335  and  _337
REMARK  140  A    between atoms: _337  and  _338
REMARK                            x       y       z     vdW  Elec       q    Type
REMARK                         _______ _______ _______ _____ _____    ______ ____
ROOT
ATOM      1  O   HOH     1      30.273  20.424 -38.597  0.00  0.00    +0.000 OA
ENDROOT
TORSDOF 0
REMARK  Name = ../refined-set-2016/2ri9/2ri9_pocket.pdb
REMARK  140 active torsions:
REMARK  status: ('A' for Active; 'I' for Inactive)
REMARK    1  A    between atoms: _1  and  _3
REMARK    2  A    between atoms: _3  and  _4
REMARK    3  A    between atoms: _3  and  _6
REMARK    4  A    between atoms: _6  and  _7
REMARK    5  A    between atoms: _7  and  _8
REMARK    6  A    between atoms: _8  and  _9
REMARK    7  A    between atoms: _18  and  _20
REMARK    8  A    between atoms: _20  and  _21
REMARK    9  A    between atoms: _20  and  _23
REMARK   10  A    between atoms: _23  and  _24
REMARK   11  A    between atoms: _27  and  _29
REMARK   12  A    between atoms: _29  and  _30
REMARK   13  A    between atoms: _29  and  _32
REMARK   14  A    between atoms: _32  and  _33
REMARK   15  A    between atoms: _39  and  _41
REMARK   16  A    between atoms: _41  and  _42
REMARK   17  A    between atoms: _41  and  _44
REMARK   18  A    between atoms: _44  and  _45
REMARK   19  A    between atoms: _45  and  _46
REMARK   20  A    between atoms: _49  and  _51
REMARK   21  A    between atoms: _51  and  _52
REMARK   22  A    between atoms: _51  and  _54
REMARK   23  A    between atoms: _54  and  _55
REMARK   24  A    between atoms: _58  and  _60
REMARK   25  A    between atoms: _60  and  _61
REMARK   26  A    between atoms: _60  and  _63
REMARK   27  A    between atoms: _63  and  _64
REMARK   28  A    between atoms: _64  and  _65
REMARK   29  A    between atoms: _65  and  _66
REMARK   30  A    between atoms: _75  and  _77
REMARK   31  A    between atoms: _77  and  _78
REMARK   32  A    between atoms: _81  and  _83
REMARK   33  A    between atoms: _83  and  _84
REMARK   34  A    between atoms: _83  and  _86
REMARK   35  A    between atoms: _86  and  _87
REMARK   36  A    between atoms: _90  and  _92
REMARK   37  A    between atoms: _92  and  _93
REMARK   38  A    between atoms: _95  and  _97
REMARK   39  A    between atoms: _97  and  _98
REMARK   40  A    between atoms: _100  and  _102
REMARK   41  A    between atoms: _102  and  _103
REMARK   42  A    between atoms: _102  and  _105
REMARK   43  A    between atoms: _105  and  _106
REMARK   44  A    between atoms: _109  and  _111
REMARK   45  A    between atoms: _111  and  _112
REMARK   46  A    between atoms: _111  and  _114
REMARK   47  A    between atoms: _114  and  _115
REMARK   48  A    between atoms: _117  and  _119
REMARK   49  A    between atoms: _119  and  _120
REMARK   50  A    between atoms: _119  and  _122
REMARK   51  A    between atoms: _122  and  _123
REMARK   52  A    between atoms: _123  and  _124
REMARK   53  A    between atoms: _127  and  _129
REMARK   54  A    between atoms: _129  and  _130
REMARK   55  A    between atoms: _129  and  _132
REMARK   56  A    between atoms: _132  and  _133
REMARK   57  A    between atoms: _138  and  _139
REMARK   58  A    between atoms: _141  and  _143
REMARK   59  A    between atoms: _143  and  _144
REMARK   60  A    between atoms: _143  and  _146
REMARK   61  A    between atoms: _146  and  _147
REMARK   62  A    between atoms: _147  and  _148
REMARK   63  A    between atoms: _148  and  _149
REMARK   64  A    between atoms: _149  and  _150
REMARK   65  A    between atoms: _154  and  _156
REMARK   66  A    between atoms: _156  and  _157
REMARK   67  A    between atoms: _156  and  _159
REMARK   68  A    between atoms: _159  and  _160
REMARK   69  A    between atoms: _163  and  _165
REMARK   70  A    between atoms: _165  and  _166
REMARK   71  A    between atoms: _165  and  _168
REMARK   72  A    between atoms: _168  and  _169
REMARK   73  A    between atoms: _175  and  _177
REMARK   74  A    between atoms: _177  and  _178
REMARK   75  A    between atoms: _177  and  _180
REMARK   76  A    between atoms: _183  and  _185
REMARK   77  A    between atoms: _185  and  _186
REMARK   78  A    between atoms: _185  and  _188
REMARK   79  A    between atoms: _188  and  _189
REMARK   80  A    between atoms: _192  and  _194
REMARK   81  A    between atoms: _194  and  _195
REMARK   82  A    between atoms: _194  and  _197
REMARK   83  A    between atoms: _197  and  _198
REMARK   84  A    between atoms: _198  and  _199
REMARK   85  A    between atoms: _199  and  _200
REMARK   86  A    between atoms: _210  and  _211
REMARK   87  A    between atoms: _216  and  _218
REMARK   88  A    between atoms: _218  and  _219
REMARK   89  A    between atoms: _218  and  _221
REMARK   90  A    between atoms: _221  and  _222
REMARK   91  A    between atoms: _222  and  _223
REMARK   92  A    between atoms: _226  and  _228
REMARK   93  A    between atoms: _228  and  _229
REMARK   94  A    between atoms: _228  and  _231
REMARK   95  A    between atoms: _231  and  _232
REMARK   96  A    between atoms: _232  and  _233
REMARK   97  A    between atoms: _236  and  _238
REMARK   98  A    between atoms: _238  and  _239
REMARK   99  A    between atoms: _238  and  _241
REMARK  100  A    between atoms: _241  and  _242
REMARK  101  A    between atoms: _242  and  _243
REMARK  102  A    between atoms: _246  and  _248
REMARK  103  A    between atoms: _248  and  _249
REMARK  104  A    between atoms: _248  and  _251
REMARK  105  A    between atoms: _251  and  _252
REMARK  106  A    between atoms: _254  and  _256
REMARK  107  A    between atoms: _256  and  _257
REMARK  108  A    between atoms: _256  and  _259
REMARK  109  A    between atoms: _259  and  _260
REMARK  110  A    between atoms: _266  and  _268
REMARK  111  A    between atoms: _268  and  _269
REMARK  112  A    between atoms: _268  and  _271
REMARK  113  A    between atoms: _271  and  _272
REMARK  114  A    between atoms: _275  and  _277
REMARK  115  A    between atoms: _277  and  _278
REMARK  116  A    between atoms: _281  and  _283
REMARK  117  A    between atoms: _283  and  _284
REMARK  118  A    between atoms: _283  and  _286
REMARK  119  A    between atoms: _286  and  _287
REMARK  120  A    between atoms: _287  and  _288
REMARK  121  A    between atoms: _291  and  _293
REMARK  122  A    between atoms: _293  and  _294
REMARK  123  A    between atoms: _293  and  _296
REMARK  124  A    between atoms: _296  and  _297
REMARK  125  A    between atoms: _302  and  _303
REMARK  126  A    between atoms: _305  and  _307
REMARK  127  A    between atoms: _307  and  _308
REMARK  128  A    between atoms: _307  and  _310
REMARK  129  A    between atoms: _310  and  _311
REMARK  130  A    between atoms: _316  and  _318
REMARK  131  A    between atoms: _318  and  _319
REMARK  132  A    between atoms: _318  and  _321
REMARK  133  A    between atoms: _321  and  _322
REMARK  134  A    between atoms: _325  and  _327
REMARK  135  A    between atoms: _327  and  _328
REMARK  136  A    between atoms: _327  and  _330
REMARK  137  A    between atoms: _330  and  _331
REMARK  138  A    between atoms: _331  and  _332
REMARK  139  A    between atoms: _335  and  _337
REMARK  140  A    between atoms: _337  and  _338
REMARK                            x       y       z     vdW  Elec       q    Type
REMARK                         _______ _______ _______ _____ _____    ______ ____
ROOT
ATOM      1  O   HOH     1      33.076  30.713 -44.680  0.00  0.00    +0.000 OA
ENDROOT
TORSDOF 0
REMARK  Name = ../refined-set-2016/2ri9/2ri9_pocket.pdb
REMARK  140 active torsions:
REMARK  status: ('A' for Active; 'I' for Inactive)
REMARK    1  A    between atoms: _1  and  _3
REMARK    2  A    between atoms: _3  and  _4
REMARK    3  A    between atoms: _3  and  _6
REMARK    4  A    between atoms: _6  and  _7
REMARK    5  A    between atoms: _7  and  _8
REMARK    6  A    between atoms: _8  and  _9
REMARK    7  A    between atoms: _18  and  _20
REMARK    8  A    between atoms: _20  and  _21
REMARK    9  A    between atoms: _20  and  _23
REMARK   10  A    between atoms: _23  and  _24
REMARK   11  A    between atoms: _27  and  _29
REMARK   12  A    between atoms: _29  and  _30
REMARK   13  A    between atoms: _29  and  _32
REMARK   14  A    between atoms: _32  and  _33
REMARK   15  A    between atoms: _39  and  _41
REMARK   16  A    between atoms: _41  and  _42
REMARK   17  A    between atoms: _41  and  _44
REMARK   18  A    between atoms: _44  and  _45
REMARK   19  A    between atoms: _45  and  _46
REMARK   20  A    between atoms: _49  and  _51
REMARK   21  A    between atoms: _51  and  _52
REMARK   22  A    between atoms: _51  and  _54
REMARK   23  A    between atoms: _54  and  _55
REMARK   24  A    between atoms: _58  and  _60
REMARK   25  A    between atoms: _60  and  _61
REMARK   26  A    between atoms: _60  and  _63
REMARK   27  A    between atoms: _63  and  _64
REMARK   28  A    between atoms: _64  and  _65
REMARK   29  A    between atoms: _65  and  _66
REMARK   30  A    between atoms: _75  and  _77
REMARK   31  A    between atoms: _77  and  _78
REMARK   32  A    between atoms: _81  and  _83
REMARK   33  A    between atoms: _83  and  _84
REMARK   34  A    between atoms: _83  and  _86
REMARK   35  A    between atoms: _86  and  _87
REMARK   36  A    between atoms: _90  and  _92
REMARK   37  A    between atoms: _92  and  _93
REMARK   38  A    between atoms: _95  and  _97
REMARK   39  A    between atoms: _97  and  _98
REMARK   40  A    between atoms: _100  and  _102
REMARK   41  A    between atoms: _102  and  _103
REMARK   42  A    between atoms: _102  and  _105
REMARK   43  A    between atoms: _105  and  _106
REMARK   44  A    between atoms: _109  and  _111
REMARK   45  A    between atoms: _111  and  _112
REMARK   46  A    between atoms: _111  and  _114
REMARK   47  A    between atoms: _114  and  _115
REMARK   48  A    between atoms: _117  and  _119
REMARK   49  A    between atoms: _119  and  _120
REMARK   50  A    between atoms: _119  and  _122
REMARK   51  A    between atoms: _122  and  _123
REMARK   52  A    between atoms: _123  and  _124
REMARK   53  A    between atoms: _127  and  _129
REMARK   54  A    between atoms: _129  and  _130
REMARK   55  A    between atoms: _129  and  _132
REMARK   56  A    between atoms: _132  and  _133
REMARK   57  A    between atoms: _138  and  _139
REMARK   58  A    between atoms: _141  and  _143
REMARK   59  A    between atoms: _143  and  _144
REMARK   60  A    between atoms: _143  and  _146
REMARK   61  A    between atoms: _146  and  _147
REMARK   62  A    between atoms: _147  and  _148
REMARK   63  A    between atoms: _148  and  _149
REMARK   64  A    between atoms: _149  and  _150
REMARK   65  A    between atoms: _154  and  _156
REMARK   66  A    between atoms: _156  and  _157
REMARK   67  A    between atoms: _156  and  _159
REMARK   68  A    between atoms: _159  and  _160
REMARK   69  A    between atoms: _163  and  _165
REMARK   70  A    between atoms: _165  and  _166
REMARK   71  A    between atoms: _165  and  _168
REMARK   72  A    between atoms: _168  and  _169
REMARK   73  A    between atoms: _175  and  _177
REMARK   74  A    between atoms: _177  and  _178
REMARK   75  A    between atoms: _177  and  _180
REMARK   76  A    between atoms: _183  and  _185
REMARK   77  A    between atoms: _185  and  _186
REMARK   78  A    between atoms: _185  and  _188
REMARK   79  A    between atoms: _188  and  _189
REMARK   80  A    between atoms: _192  and  _194
REMARK   81  A    between atoms: _194  and  _195
REMARK   82  A    between atoms: _194  and  _197
REMARK   83  A    between atoms: _197  and  _198
REMARK   84  A    between atoms: _198  and  _199
REMARK   85  A    between atoms: _199  and  _200
REMARK   86  A    between atoms: _210  and  _211
REMARK   87  A    between atoms: _216  and  _218
REMARK   88  A    between atoms: _218  and  _219
REMARK   89  A    between atoms: _218  and  _221
REMARK   90  A    between atoms: _221  and  _222
REMARK   91  A    between atoms: _222  and  _223
REMARK   92  A    between atoms: _226  and  _228
REMARK   93  A    between atoms: _228  and  _229
REMARK   94  A    between atoms: _228  and  _231
REMARK   95  A    between atoms: _231  and  _232
REMARK   96  A    between atoms: _232  and  _233
REMARK   97  A    between atoms: _236  and  _238
REMARK   98  A    between atoms: _238  and  _239
REMARK   99  A    between atoms: _238  and  _241
REMARK  100  A    between atoms: _241  and  _242
REMARK  101  A    between atoms: _242  and  _243
REMARK  102  A    between atoms: _246  and  _248
REMARK  103  A    between atoms: _248  and  _249
REMARK  104  A    between atoms: _248  and  _251
REMARK  105  A    between atoms: _251  and  _252
REMARK  106  A    between atoms: _254  and  _256
REMARK  107  A    between atoms: _256  and  _257
REMARK  108  A    between atoms: _256  and  _259
REMARK  109  A    between atoms: _259  and  _260
REMARK  110  A    between atoms: _266  and  _268
REMARK  111  A    between atoms: _268  and  _269
REMARK  112  A    between atoms: _268  and  _271
REMARK  113  A    between atoms: _271  and  _272
REMARK  114  A    between atoms: _275  and  _277
REMARK  115  A    between atoms: _277  and  _278
REMARK  116  A    between atoms: _281  and  _283
REMARK  117  A    between atoms: _283  and  _284
REMARK  118  A    between atoms: _283  and  _286
REMARK  119  A    between atoms: _286  and  _287
REMARK  120  A    between atoms: _287  and  _288
REMARK  121  A    between atoms: _291  and  _293
REMARK  122  A    between atoms: _293  and  _294
REMARK  123  A    between atoms: _293  and  _296
REMARK  124  A    between atoms: _296  and  _297
REMARK  125  A    between atoms: _302  and  _303
REMARK  126  A    between atoms: _305  and  _307
REMARK  127  A    between atoms: _307  and  _308
REMARK  128  A    between atoms: _307  and  _310
REMARK  129  A    between atoms: _310  and  _311
REMARK  130  A    between atoms: _316  and  _318
REMARK  131  A    between atoms: _318  and  _319
REMARK  132  A    between atoms: _318  and  _321
REMARK  133  A    between atoms: _321  and  _322
REMARK  134  A    between atoms: _325  and  _327
REMARK  135  A    between atoms: _327  and  _328
REMARK  136  A    between atoms: _327  and  _330
REMARK  137  A    between atoms: _330  and  _331
REMARK  138  A    between atoms: _331  and  _332
REMARK  139  A    between atoms: _335  and  _337
REMARK  140  A    between atoms: _337  and  _338
REMARK                            x       y       z     vdW  Elec       q    Type
REMARK                         _______ _______ _______ _____ _____    ______ ____
ROOT
ATOM      1  O   HOH     1      37.128  31.268 -45.952  0.00  0.00    +0.000 OA
ENDROOT
TORSDOF 0
REMARK  Name = ../refined-set-2016/2ri9/2ri9_pocket.pdb
REMARK  140 active torsions:
REMARK  status: ('A' for Active; 'I' for Inactive)
REMARK    1  A    between atoms: _1  and  _3
REMARK    2  A    between atoms: _3  and  _4
REMARK    3  A    between atoms: _3  and  _6
REMARK    4  A    between atoms: _6  and  _7
REMARK    5  A    between atoms: _7  and  _8
REMARK    6  A    between atoms: _8  and  _9
REMARK    7  A    between atoms: _18  and  _20
REMARK    8  A    between atoms: _20  and  _21
REMARK    9  A    between atoms: _20  and  _23
REMARK   10  A    between atoms: _23  and  _24
REMARK   11  A    between atoms: _27  and  _29
REMARK   12  A    between atoms: _29  and  _30
REMARK   13  A    between atoms: _29  and  _32
REMARK   14  A    between atoms: _32  and  _33
REMARK   15  A    between atoms: _39  and  _41
REMARK   16  A    between atoms: _41  and  _42
REMARK   17  A    between atoms: _41  and  _44
REMARK   18  A    between atoms: _44  and  _45
REMARK   19  A    between atoms: _45  and  _46
REMARK   20  A    between atoms: _49  and  _51
REMARK   21  A    between atoms: _51  and  _52
REMARK   22  A    between atoms: _51  and  _54
REMARK   23  A    between atoms: _54  and  _55
REMARK   24  A    between atoms: _58  and  _60
REMARK   25  A    between atoms: _60  and  _61
REMARK   26  A    between atoms: _60  and  _63
REMARK   27  A    between atoms: _63  and  _64
REMARK   28  A    between atoms: _64  and  _65
REMARK   29  A    between atoms: _65  and  _66
REMARK   30  A    between atoms: _75  and  _77
REMARK   31  A    between atoms: _77  and  _78
REMARK   32  A    between atoms: _81  and  _83
REMARK   33  A    between atoms: _83  and  _84
REMARK   34  A    between atoms: _83  and  _86
REMARK   35  A    between atoms: _86  and  _87
REMARK   36  A    between atoms: _90  and  _92
REMARK   37  A    between atoms: _92  and  _93
REMARK   38  A    between atoms: _95  and  _97
REMARK   39  A    between atoms: _97  and  _98
REMARK   40  A    between atoms: _100  and  _102
REMARK   41  A    between atoms: _102  and  _103
REMARK   42  A    between atoms: _102  and  _105
REMARK   43  A    between atoms: _105  and  _106
REMARK   44  A    between atoms: _109  and  _111
REMARK   45  A    between atoms: _111  and  _112
REMARK   46  A    between atoms: _111  and  _114
REMARK   47  A    between atoms: _114  and  _115
REMARK   48  A    between atoms: _117  and  _119
REMARK   49  A    between atoms: _119  and  _120
REMARK   50  A    between atoms: _119  and  _122
REMARK   51  A    between atoms: _122  and  _123
REMARK   52  A    between atoms: _123  and  _124
REMARK   53  A    between atoms: _127  and  _129
REMARK   54  A    between atoms: _129  and  _130
REMARK   55  A    between atoms: _129  and  _132
REMARK   56  A    between atoms: _132  and  _133
REMARK   57  A    between atoms: _138  and  _139
REMARK   58  A    between atoms: _141  and  _143
REMARK   59  A    between atoms: _143  and  _144
REMARK   60  A    between atoms: _143  and  _146
REMARK   61  A    between atoms: _146  and  _147
REMARK   62  A    between atoms: _147  and  _148
REMARK   63  A    between atoms: _148  and  _149
REMARK   64  A    between atoms: _149  and  _150
REMARK   65  A    between atoms: _154  and  _156
REMARK   66  A    between atoms: _156  and  _157
REMARK   67  A    between atoms: _156  and  _159
REMARK   68  A    between atoms: _159  and  _160
REMARK   69  A    between atoms: _163  and  _165
REMARK   70  A    between atoms: _165  and  _166
REMARK   71  A    between atoms: _165  and  _168
REMARK   72  A    between atoms: _168  and  _169
REMARK   73  A    between atoms: _175  and  _177
REMARK   74  A    between atoms: _177  and  _178
REMARK   75  A    between atoms: _177  and  _180
REMARK   76  A    between atoms: _183  and  _185
REMARK   77  A    between atoms: _185  and  _186
REMARK   78  A    between atoms: _185  and  _188
REMARK   79  A    between atoms: _188  and  _189
REMARK   80  A    between atoms: _192  and  _194
REMARK   81  A    between atoms: _194  and  _195
REMARK   82  A    between atoms: _194  and  _197
REMARK   83  A    between atoms: _197  and  _198
REMARK   84  A    between atoms: _198  and  _199
REMARK   85  A    between atoms: _199  and  _200
REMARK   86  A    between atoms: _210  and  _211
REMARK   87  A    between atoms: _216  and  _218
REMARK   88  A    between atoms: _218  and  _219
REMARK   89  A    between atoms: _218  and  _221
REMARK   90  A    between atoms: _221  and  _222
REMARK   91  A    between atoms: _222  and  _223
REMARK   92  A    between atoms: _226  and  _228
REMARK   93  A    between atoms: _228  and  _229
REMARK   94  A    between atoms: _228  and  _231
REMARK   95  A    between atoms: _231  and  _232
REMARK   96  A    between atoms: _232  and  _233
REMARK   97  A    between atoms: _236  and  _238
REMARK   98  A    between atoms: _238  and  _239
REMARK   99  A    between atoms: _238  and  _241
REMARK  100  A    between atoms: _241  and  _242
REMARK  101  A    between atoms: _242  and  _243
REMARK  102  A    between atoms: _246  and  _248
REMARK  103  A    between atoms: _248  and  _249
REMARK  104  A    between atoms: _248  and  _251
REMARK  105  A    between atoms: _251  and  _252
REMARK  106  A    between atoms: _254  and  _256
REMARK  107  A    between atoms: _256  and  _257
REMARK  108  A    between atoms: _256  and  _259
REMARK  109  A    between atoms: _259  and  _260
REMARK  110  A    between atoms: _266  and  _268
REMARK  111  A    between atoms: _268  and  _269
REMARK  112  A    between atoms: _268  and  _271
REMARK  113  A    between atoms: _271  and  _272
REMARK  114  A    between atoms: _275  and  _277
REMARK  115  A    between atoms: _277  and  _278
REMARK  116  A    between atoms: _281  and  _283
REMARK  117  A    between atoms: _283  and  _284
REMARK  118  A    between atoms: _283  and  _286
REMARK  119  A    between atoms: _286  and  _287
REMARK  120  A    between atoms: _287  and  _288
REMARK  121  A    between atoms: _291  and  _293
REMARK  122  A    between atoms: _293  and  _294
REMARK  123  A    between atoms: _293  and  _296
REMARK  124  A    between atoms: _296  and  _297
REMARK  125  A    between atoms: _302  and  _303
REMARK  126  A    between atoms: _305  and  _307
REMARK  127  A    between atoms: _307  and  _308
REMARK  128  A    between atoms: _307  and  _310
REMARK  129  A    between atoms: _310  and  _311
REMARK  130  A    between atoms: _316  and  _318
REMARK  131  A    between atoms: _318  and  _319
REMARK  132  A    between atoms: _318  and  _321
REMARK  133  A    between atoms: _321  and  _322
REMARK  134  A    between atoms: _325  and  _327
REMARK  135  A    between atoms: _327  and  _328
REMARK  136  A    between atoms: _327  and  _330
REMARK  137  A    between atoms: _330  and  _331
REMARK  138  A    between atoms: _331  and  _332
REMARK  139  A    between atoms: _335  and  _337
REMARK  140  A    between atoms: _337  and  _338
REMARK                            x       y       z     vdW  Elec       q    Type
REMARK                         _______ _______ _______ _____ _____    ______ ____
ROOT
ATOM      1  O   HOH     1      38.288  29.235 -48.070  0.00  0.00    +0.000 OA
ENDROOT
TORSDOF 0
REMARK  Name = ../refined-set-2016/2ri9/2ri9_pocket.pdb
REMARK  140 active torsions:
REMARK  status: ('A' for Active; 'I' for Inactive)
REMARK    1  A    between atoms: _1  and  _3
REMARK    2  A    between atoms: _3  and  _4
REMARK    3  A    between atoms: _3  and  _6
REMARK    4  A    between atoms: _6  and  _7
REMARK    5  A    between atoms: _7  and  _8
REMARK    6  A    between atoms: _8  and  _9
REMARK    7  A    between atoms: _18  and  _20
REMARK    8  A    between atoms: _20  and  _21
REMARK    9  A    between atoms: _20  and  _23
REMARK   10  A    between atoms: _23  and  _24
REMARK   11  A    between atoms: _27  and  _29
REMARK   12  A    between atoms: _29  and  _30
REMARK   13  A    between atoms: _29  and  _32
REMARK   14  A    between atoms: _32  and  _33
REMARK   15  A    between atoms: _39  and  _41
REMARK   16  A    between atoms: _41  and  _42
REMARK   17  A    between atoms: _41  and  _44
REMARK   18  A    between atoms: _44  and  _45
REMARK   19  A    between atoms: _45  and  _46
REMARK   20  A    between atoms: _49  and  _51
REMARK   21  A    between atoms: _51  and  _52
REMARK   22  A    between atoms: _51  and  _54
REMARK   23  A    between atoms: _54  and  _55
REMARK   24  A    between atoms: _58  and  _60
REMARK   25  A    between atoms: _60  and  _61
REMARK   26  A    between atoms: _60  and  _63
REMARK   27  A    between atoms: _63  and  _64
REMARK   28  A    between atoms: _64  and  _65
REMARK   29  A    between atoms: _65  and  _66
REMARK   30  A    between atoms: _75  and  _77
REMARK   31  A    between atoms: _77  and  _78
REMARK   32  A    between atoms: _81  and  _83
REMARK   33  A    between atoms: _83  and  _84
REMARK   34  A    between atoms: _83  and  _86
REMARK   35  A    between atoms: _86  and  _87
REMARK   36  A    between atoms: _90  and  _92
REMARK   37  A    between atoms: _92  and  _93
REMARK   38  A    between atoms: _95  and  _97
REMARK   39  A    between atoms: _97  and  _98
REMARK   40  A    between atoms: _100  and  _102
REMARK   41  A    between atoms: _102  and  _103
REMARK   42  A    between atoms: _102  and  _105
REMARK   43  A    between atoms: _105  and  _106
REMARK   44  A    between atoms: _109  and  _111
REMARK   45  A    between atoms: _111  and  _112
REMARK   46  A    between atoms: _111  and  _114
REMARK   47  A    between atoms: _114  and  _115
REMARK   48  A    between atoms: _117  and  _119
REMARK   49  A    between atoms: _119  and  _120
REMARK   50  A    between atoms: _119  and  _122
REMARK   51  A    between atoms: _122  and  _123
REMARK   52  A    between atoms: _123  and  _124
REMARK   53  A    between atoms: _127  and  _129
REMARK   54  A    between atoms: _129  and  _130
REMARK   55  A    between atoms: _129  and  _132
REMARK   56  A    between atoms: _132  and  _133
REMARK   57  A    between atoms: _138  and  _139
REMARK   58  A    between atoms: _141  and  _143
REMARK   59  A    between atoms: _143  and  _144
REMARK   60  A    between atoms: _143  and  _146
REMARK   61  A    between atoms: _146  and  _147
REMARK   62  A    between atoms: _147  and  _148
REMARK   63  A    between atoms: _148  and  _149
REMARK   64  A    between atoms: _149  and  _150
REMARK   65  A    between atoms: _154  and  _156
REMARK   66  A    between atoms: _156  and  _157
REMARK   67  A    between atoms: _156  and  _159
REMARK   68  A    between atoms: _159  and  _160
REMARK   69  A    between atoms: _163  and  _165
REMARK   70  A    between atoms: _165  and  _166
REMARK   71  A    between atoms: _165  and  _168
REMARK   72  A    between atoms: _168  and  _169
REMARK   73  A    between atoms: _175  and  _177
REMARK   74  A    between atoms: _177  and  _178
REMARK   75  A    between atoms: _177  and  _180
REMARK   76  A    between atoms: _183  and  _185
REMARK   77  A    between atoms: _185  and  _186
REMARK   78  A    between atoms: _185  and  _188
REMARK   79  A    between atoms: _188  and  _189
REMARK   80  A    between atoms: _192  and  _194
REMARK   81  A    between atoms: _194  and  _195
REMARK   82  A    between atoms: _194  and  _197
REMARK   83  A    between atoms: _197  and  _198
REMARK   84  A    between atoms: _198  and  _199
REMARK   85  A    between atoms: _199  and  _200
REMARK   86  A    between atoms: _210  and  _211
REMARK   87  A    between atoms: _216  and  _218
REMARK   88  A    between atoms: _218  and  _219
REMARK   89  A    between atoms: _218  and  _221
REMARK   90  A    between atoms: _221  and  _222
REMARK   91  A    between atoms: _222  and  _223
REMARK   92  A    between atoms: _226  and  _228
REMARK   93  A    between atoms: _228  and  _229
REMARK   94  A    between atoms: _228  and  _231
REMARK   95  A    between atoms: _231  and  _232
REMARK   96  A    between atoms: _232  and  _233
REMARK   97  A    between atoms: _236  and  _238
REMARK   98  A    between atoms: _238  and  _239
REMARK   99  A    between atoms: _238  and  _241
REMARK  100  A    between atoms: _241  and  _242
REMARK  101  A    between atoms: _242  and  _243
REMARK  102  A    between atoms: _246  and  _248
REMARK  103  A    between atoms: _248  and  _249
REMARK  104  A    between atoms: _248  and  _251
REMARK  105  A    between atoms: _251  and  _252
REMARK  106  A    between atoms: _254  and  _256
REMARK  107  A    between atoms: _256  and  _257
REMARK  108  A    between atoms: _256  and  _259
REMARK  109  A    between atoms: _259  and  _260
REMARK  110  A    between atoms: _266  and  _268
REMARK  111  A    between atoms: _268  and  _269
REMARK  112  A    between atoms: _268  and  _271
REMARK  113  A    between atoms: _271  and  _272
REMARK  114  A    between atoms: _275  and  _277
REMARK  115  A    between atoms: _277  and  _278
REMARK  116  A    between atoms: _281  and  _283
REMARK  117  A    between atoms: _283  and  _284
REMARK  118  A    between atoms: _283  and  _286
REMARK  119  A    between atoms: _286  and  _287
REMARK  120  A    between atoms: _287  and  _288
REMARK  121  A    between atoms: _291  and  _293
REMARK  122  A    between atoms: _293  and  _294
REMARK  123  A    between atoms: _293  and  _296
REMARK  124  A    between atoms: _296  and  _297
REMARK  125  A    between atoms: _302  and  _303
REMARK  126  A    between atoms: _305  and  _307
REMARK  127  A    between atoms: _307  and  _308
REMARK  128  A    between atoms: _307  and  _310
REMARK  129  A    between atoms: _310  and  _311
REMARK  130  A    between atoms: _316  and  _318
REMARK  131  A    between atoms: _318  and  _319
REMARK  132  A    between atoms: _318  and  _321
REMARK  133  A    between atoms: _321  and  _322
REMARK  134  A    between atoms: _325  and  _327
REMARK  135  A    between atoms: _327  and  _328
REMARK  136  A    between atoms: _327  and  _330
REMARK  137  A    between atoms: _330  and  _331
REMARK  138  A    between atoms: _331  and  _332
REMARK  139  A    between atoms: _335  and  _337
REMARK  140  A    between atoms: _337  and  _338
REMARK                            x       y       z     vdW  Elec       q    Type
REMARK                         _______ _______ _______ _____ _____    ______ ____
ROOT
ATOM      1  O   HOH     1      37.408  32.390 -43.377  0.00  0.00    +0.000 OA
ENDROOT
TORSDOF 0
REMARK  Name = ../refined-set-2016/2ri9/2ri9_pocket.pdb
REMARK  140 active torsions:
REMARK  status: ('A' for Active; 'I' for Inactive)
REMARK    1  A    between atoms: _1  and  _3
REMARK    2  A    between atoms: _3  and  _4
REMARK    3  A    between atoms: _3  and  _6
REMARK    4  A    between atoms: _6  and  _7
REMARK    5  A    between atoms: _7  and  _8
REMARK    6  A    between atoms: _8  and  _9
REMARK    7  A    between atoms: _18  and  _20
REMARK    8  A    between atoms: _20  and  _21
REMARK    9  A    between atoms: _20  and  _23
REMARK   10  A    between atoms: _23  and  _24
REMARK   11  A    between atoms: _27  and  _29
REMARK   12  A    between atoms: _29  and  _30
REMARK   13  A    between atoms: _29  and  _32
REMARK   14  A    between atoms: _32  and  _33
REMARK   15  A    between atoms: _39  and  _41
REMARK   16  A    between atoms: _41  and  _42
REMARK   17  A    between atoms: _41  and  _44
REMARK   18  A    between atoms: _44  and  _45
REMARK   19  A    between atoms: _45  and  _46
REMARK   20  A    between atoms: _49  and  _51
REMARK   21  A    between atoms: _51  and  _52
REMARK   22  A    between atoms: _51  and  _54
REMARK   23  A    between atoms: _54  and  _55
REMARK   24  A    between atoms: _58  and  _60
REMARK   25  A    between atoms: _60  and  _61
REMARK   26  A    between atoms: _60  and  _63
REMARK   27  A    between atoms: _63  and  _64
REMARK   28  A    between atoms: _64  and  _65
REMARK   29  A    between atoms: _65  and  _66
REMARK   30  A    between atoms: _75  and  _77
REMARK   31  A    between atoms: _77  and  _78
REMARK   32  A    between atoms: _81  and  _83
REMARK   33  A    between atoms: _83  and  _84
REMARK   34  A    between atoms: _83  and  _86
REMARK   35  A    between atoms: _86  and  _87
REMARK   36  A    between atoms: _90  and  _92
REMARK   37  A    between atoms: _92  and  _93
REMARK   38  A    between atoms: _95  and  _97
REMARK   39  A    between atoms: _97  and  _98
REMARK   40  A    between atoms: _100  and  _102
REMARK   41  A    between atoms: _102  and  _103
REMARK   42  A    between atoms: _102  and  _105
REMARK   43  A    between atoms: _105  and  _106
REMARK   44  A    between atoms: _109  and  _111
REMARK   45  A    between atoms: _111  and  _112
REMARK   46  A    between atoms: _111  and  _114
REMARK   47  A    between atoms: _114  and  _115
REMARK   48  A    between atoms: _117  and  _119
REMARK   49  A    between atoms: _119  and  _120
REMARK   50  A    between atoms: _119  and  _122
REMARK   51  A    between atoms: _122  and  _123
REMARK   52  A    between atoms: _123  and  _124
REMARK   53  A    between atoms: _127  and  _129
REMARK   54  A    between atoms: _129  and  _130
REMARK   55  A    between atoms: _129  and  _132
REMARK   56  A    between atoms: _132  and  _133
REMARK   57  A    between atoms: _138  and  _139
REMARK   58  A    between atoms: _141  and  _143
REMARK   59  A    between atoms: _143  and  _144
REMARK   60  A    between atoms: _143  and  _146
REMARK   61  A    between atoms: _146  and  _147
REMARK   62  A    between atoms: _147  and  _148
REMARK   63  A    between atoms: _148  and  _149
REMARK   64  A    between atoms: _149  and  _150
REMARK   65  A    between atoms: _154  and  _156
REMARK   66  A    between atoms: _156  and  _157
REMARK   67  A    between atoms: _156  and  _159
REMARK   68  A    between atoms: _159  and  _160
REMARK   69  A    between atoms: _163  and  _165
REMARK   70  A    between atoms: _165  and  _166
REMARK   71  A    between atoms: _165  and  _168
REMARK   72  A    between atoms: _168  and  _169
REMARK   73  A    between atoms: _175  and  _177
REMARK   74  A    between atoms: _177  and  _178
REMARK   75  A    between atoms: _177  and  _180
REMARK   76  A    between atoms: _183  and  _185
REMARK   77  A    between atoms: _185  and  _186
REMARK   78  A    between atoms: _185  and  _188
REMARK   79  A    between atoms: _188  and  _189
REMARK   80  A    between atoms: _192  and  _194
REMARK   81  A    between atoms: _194  and  _195
REMARK   82  A    between atoms: _194  and  _197
REMARK   83  A    between atoms: _197  and  _198
REMARK   84  A    between atoms: _198  and  _199
REMARK   85  A    between atoms: _199  and  _200
REMARK   86  A    between atoms: _210  and  _211
REMARK   87  A    between atoms: _216  and  _218
REMARK   88  A    between atoms: _218  and  _219
REMARK   89  A    between atoms: _218  and  _221
REMARK   90  A    between atoms: _221  and  _222
REMARK   91  A    between atoms: _222  and  _223
REMARK   92  A    between atoms: _226  and  _228
REMARK   93  A    between atoms: _228  and  _229
REMARK   94  A    between atoms: _228  and  _231
REMARK   95  A    between atoms: _231  and  _232
REMARK   96  A    between atoms: _232  and  _233
REMARK   97  A    between atoms: _236  and  _238
REMARK   98  A    between atoms: _238  and  _239
REMARK   99  A    between atoms: _238  and  _241
REMARK  100  A    between atoms: _241  and  _242
REMARK  101  A    between atoms: _242  and  _243
REMARK  102  A    between atoms: _246  and  _248
REMARK  103  A    between atoms: _248  and  _249
REMARK  104  A    between atoms: _248  and  _251
REMARK  105  A    between atoms: _251  and  _252
REMARK  106  A    between atoms: _254  and  _256
REMARK  107  A    between atoms: _256  and  _257
REMARK  108  A    between atoms: _256  and  _259
REMARK  109  A    between atoms: _259  and  _260
REMARK  110  A    between atoms: _266  and  _268
REMARK  111  A    between atoms: _268  and  _269
REMARK  112  A    between atoms: _268  and  _271
REMARK  113  A    between atoms: _271  and  _272
REMARK  114  A    between atoms: _275  and  _277
REMARK  115  A    between atoms: _277  and  _278
REMARK  116  A    between atoms: _281  and  _283
REMARK  117  A    between atoms: _283  and  _284
REMARK  118  A    between atoms: _283  and  _286
REMARK  119  A    between atoms: _286  and  _287
REMARK  120  A    between atoms: _287  and  _288
REMARK  121  A    between atoms: _291  and  _293
REMARK  122  A    between atoms: _293  and  _294
REMARK  123  A    between atoms: _293  and  _296
REMARK  124  A    between atoms: _296  and  _297
REMARK  125  A    between atoms: _302  and  _303
REMARK  126  A    between atoms: _305  and  _307
REMARK  127  A    between atoms: _307  and  _308
REMARK  128  A    between atoms: _307  and  _310
REMARK  129  A    between atoms: _310  and  _311
REMARK  130  A    between atoms: _316  and  _318
REMARK  131  A    between atoms: _318  and  _319
REMARK  132  A    between atoms: _318  and  _321
REMARK  133  A    between atoms: _321  and  _322
REMARK  134  A    between atoms: _325  and  _327
REMARK  135  A    between atoms: _327  and  _328
REMARK  136  A    between atoms: _327  and  _330
REMARK  137  A    between atoms: _330  and  _331
REMARK  138  A    between atoms: _331  and  _332
REMARK  139  A    between atoms: _335  and  _337
REMARK  140  A    between atoms: _337  and  _338
REMARK                            x       y       z     vdW  Elec       q    Type
REMARK                         _______ _______ _______ _____ _____    ______ ____
ROOT
ATOM      1  O   HOH     1      39.010  26.485 -48.912  0.00  0.00    +0.000 OA
ENDROOT
TORSDOF 0
REMARK  Name = ../refined-set-2016/2ri9/2ri9_pocket.pdb
REMARK  140 active torsions:
REMARK  status: ('A' for Active; 'I' for Inactive)
REMARK    1  A    between atoms: _1  and  _3
REMARK    2  A    between atoms: _3  and  _4
REMARK    3  A    between atoms: _3  and  _6
REMARK    4  A    between atoms: _6  and  _7
REMARK    5  A    between atoms: _7  and  _8
REMARK    6  A    between atoms: _8  and  _9
REMARK    7  A    between atoms: _18  and  _20
REMARK    8  A    between atoms: _20  and  _21
REMARK    9  A    between atoms: _20  and  _23
REMARK   10  A    between atoms: _23  and  _24
REMARK   11  A    between atoms: _27  and  _29
REMARK   12  A    between atoms: _29  and  _30
REMARK   13  A    between atoms: _29  and  _32
REMARK   14  A    between atoms: _32  and  _33
REMARK   15  A    between atoms: _39  and  _41
REMARK   16  A    between atoms: _41  and  _42
REMARK   17  A    between atoms: _41  and  _44
REMARK   18  A    between atoms: _44  and  _45
REMARK   19  A    between atoms: _45  and  _46
REMARK   20  A    between atoms: _49  and  _51
REMARK   21  A    between atoms: _51  and  _52
REMARK   22  A    between atoms: _51  and  _54
REMARK   23  A    between atoms: _54  and  _55
REMARK   24  A    between atoms: _58  and  _60
REMARK   25  A    between atoms: _60  and  _61
REMARK   26  A    between atoms: _60  and  _63
REMARK   27  A    between atoms: _63  and  _64
REMARK   28  A    between atoms: _64  and  _65
REMARK   29  A    between atoms: _65  and  _66
REMARK   30  A    between atoms: _75  and  _77
REMARK   31  A    between atoms: _77  and  _78
REMARK   32  A    between atoms: _81  and  _83
REMARK   33  A    between atoms: _83  and  _84
REMARK   34  A    between atoms: _83  and  _86
REMARK   35  A    between atoms: _86  and  _87
REMARK   36  A    between atoms: _90  and  _92
REMARK   37  A    between atoms: _92  and  _93
REMARK   38  A    between atoms: _95  and  _97
REMARK   39  A    between atoms: _97  and  _98
REMARK   40  A    between atoms: _100  and  _102
REMARK   41  A    between atoms: _102  and  _103
REMARK   42  A    between atoms: _102  and  _105
REMARK   43  A    between atoms: _105  and  _106
REMARK   44  A    between atoms: _109  and  _111
REMARK   45  A    between atoms: _111  and  _112
REMARK   46  A    between atoms: _111  and  _114
REMARK   47  A    between atoms: _114  and  _115
REMARK   48  A    between atoms: _117  and  _119
REMARK   49  A    between atoms: _119  and  _120
REMARK   50  A    between atoms: _119  and  _122
REMARK   51  A    between atoms: _122  and  _123
REMARK   52  A    between atoms: _123  and  _124
REMARK   53  A    between atoms: _127  and  _129
REMARK   54  A    between atoms: _129  and  _130
REMARK   55  A    between atoms: _129  and  _132
REMARK   56  A    between atoms: _132  and  _133
REMARK   57  A    between atoms: _138  and  _139
REMARK   58  A    between atoms: _141  and  _143
REMARK   59  A    between atoms: _143  and  _144
REMARK   60  A    between atoms: _143  and  _146
REMARK   61  A    between atoms: _146  and  _147
REMARK   62  A    between atoms: _147  and  _148
REMARK   63  A    between atoms: _148  and  _149
REMARK   64  A    between atoms: _149  and  _150
REMARK   65  A    between atoms: _154  and  _156
REMARK   66  A    between atoms: _156  and  _157
REMARK   67  A    between atoms: _156  and  _159
REMARK   68  A    between atoms: _159  and  _160
REMARK   69  A    between atoms: _163  and  _165
REMARK   70  A    between atoms: _165  and  _166
REMARK   71  A    between atoms: _165  and  _168
REMARK   72  A    between atoms: _168  and  _169
REMARK   73  A    between atoms: _175  and  _177
REMARK   74  A    between atoms: _177  and  _178
REMARK   75  A    between atoms: _177  and  _180
REMARK   76  A    between atoms: _183  and  _185
REMARK   77  A    between atoms: _185  and  _186
REMARK   78  A    between atoms: _185  and  _188
REMARK   79  A    between atoms: _188  and  _189
REMARK   80  A    between atoms: _192  and  _194
REMARK   81  A    between atoms: _194  and  _195
REMARK   82  A    between atoms: _194  and  _197
REMARK   83  A    between atoms: _197  and  _198
REMARK   84  A    between atoms: _198  and  _199
REMARK   85  A    between atoms: _199  and  _200
REMARK   86  A    between atoms: _210  and  _211
REMARK   87  A    between atoms: _216  and  _218
REMARK   88  A    between atoms: _218  and  _219
REMARK   89  A    between atoms: _218  and  _221
REMARK   90  A    between atoms: _221  and  _222
REMARK   91  A    between atoms: _222  and  _223
REMARK   92  A    between atoms: _226  and  _228
REMARK   93  A    between atoms: _228  and  _229
REMARK   94  A    between atoms: _228  and  _231
REMARK   95  A    between atoms: _231  and  _232
REMARK   96  A    between atoms: _232  and  _233
REMARK   97  A    between atoms: _236  and  _238
REMARK   98  A    between atoms: _238  and  _239
REMARK   99  A    between atoms: _238  and  _241
REMARK  100  A    between atoms: _241  and  _242
REMARK  101  A    between atoms: _242  and  _243
REMARK  102  A    between atoms: _246  and  _248
REMARK  103  A    between atoms: _248  and  _249
REMARK  104  A    between atoms: _248  and  _251
REMARK  105  A    between atoms: _251  and  _252
REMARK  106  A    between atoms: _254  and  _256
REMARK  107  A    between atoms: _256  and  _257
REMARK  108  A    between atoms: _256  and  _259
REMARK  109  A    between atoms: _259  and  _260
REMARK  110  A    between atoms: _266  and  _268
REMARK  111  A    between atoms: _268  and  _269
REMARK  112  A    between atoms: _268  and  _271
REMARK  113  A    between atoms: _271  and  _272
REMARK  114  A    between atoms: _275  and  _277
REMARK  115  A    between atoms: _277  and  _278
REMARK  116  A    between atoms: _281  and  _283
REMARK  117  A    between atoms: _283  and  _284
REMARK  118  A    between atoms: _283  and  _286
REMARK  119  A    between atoms: _286  and  _287
REMARK  120  A    between atoms: _287  and  _288
REMARK  121  A    between atoms: _291  and  _293
REMARK  122  A    between atoms: _293  and  _294
REMARK  123  A    between atoms: _293  and  _296
REMARK  124  A    between atoms: _296  and  _297
REMARK  125  A    between atoms: _302  and  _303
REMARK  126  A    between atoms: _305  and  _307
REMARK  127  A    between atoms: _307  and  _308
REMARK  128  A    between atoms: _307  and  _310
REMARK  129  A    between atoms: _310  and  _311
REMARK  130  A    between atoms: _316  and  _318
REMARK  131  A    between atoms: _318  and  _319
REMARK  132  A    between atoms: _318  and  _321
REMARK  133  A    between atoms: _321  and  _322
REMARK  134  A    between atoms: _325  and  _327
REMARK  135  A    between atoms: _327  and  _328
REMARK  136  A    between atoms: _327  and  _330
REMARK  137  A    between atoms: _330  and  _331
REMARK  138  A    between atoms: _331  and  _332
REMARK  139  A    between atoms: _335  and  _337
REMARK  140  A    between atoms: _337  and  _338
REMARK                            x       y       z     vdW  Elec       q    Type
REMARK                         _______ _______ _______ _____ _____    ______ ____
ROOT
ATOM      1  O   HOH     1      27.994  27.956 -39.938  0.00  0.00    +0.000 OA
ENDROOT
TORSDOF 0
REMARK  Name = ../refined-set-2016/2ri9/2ri9_pocket.pdb
REMARK  140 active torsions:
REMARK  status: ('A' for Active; 'I' for Inactive)
REMARK    1  A    between atoms: _1  and  _3
REMARK    2  A    between atoms: _3  and  _4
REMARK    3  A    between atoms: _3  and  _6
REMARK    4  A    between atoms: _6  and  _7
REMARK    5  A    between atoms: _7  and  _8
REMARK    6  A    between atoms: _8  and  _9
REMARK    7  A    between atoms: _18  and  _20
REMARK    8  A    between atoms: _20  and  _21
REMARK    9  A    between atoms: _20  and  _23
REMARK   10  A    between atoms: _23  and  _24
REMARK   11  A    between atoms: _27  and  _29
REMARK   12  A    between atoms: _29  and  _30
REMARK   13  A    between atoms: _29  and  _32
REMARK   14  A    between atoms: _32  and  _33
REMARK   15  A    between atoms: _39  and  _41
REMARK   16  A    between atoms: _41  and  _42
REMARK   17  A    between atoms: _41  and  _44
REMARK   18  A    between atoms: _44  and  _45
REMARK   19  A    between atoms: _45  and  _46
REMARK   20  A    between atoms: _49  and  _51
REMARK   21  A    between atoms: _51  and  _52
REMARK   22  A    between atoms: _51  and  _54
REMARK   23  A    between atoms: _54  and  _55
REMARK   24  A    between atoms: _58  and  _60
REMARK   25  A    between atoms: _60  and  _61
REMARK   26  A    between atoms: _60  and  _63
REMARK   27  A    between atoms: _63  and  _64
REMARK   28  A    between atoms: _64  and  _65
REMARK   29  A    between atoms: _65  and  _66
REMARK   30  A    between atoms: _75  and  _77
REMARK   31  A    between atoms: _77  and  _78
REMARK   32  A    between atoms: _81  and  _83
REMARK   33  A    between atoms: _83  and  _84
REMARK   34  A    between atoms: _83  and  _86
REMARK   35  A    between atoms: _86  and  _87
REMARK   36  A    between atoms: _90  and  _92
REMARK   37  A    between atoms: _92  and  _93
REMARK   38  A    between atoms: _95  and  _97
REMARK   39  A    between atoms: _97  and  _98
REMARK   40  A    between atoms: _100  and  _102
REMARK   41  A    between atoms: _102  and  _103
REMARK   42  A    between atoms: _102  and  _105
REMARK   43  A    between atoms: _105  and  _106
REMARK   44  A    between atoms: _109  and  _111
REMARK   45  A    between atoms: _111  and  _112
REMARK   46  A    between atoms: _111  and  _114
REMARK   47  A    between atoms: _114  and  _115
REMARK   48  A    between atoms: _117  and  _119
REMARK   49  A    between atoms: _119  and  _120
REMARK   50  A    between atoms: _119  and  _122
REMARK   51  A    between atoms: _122  and  _123
REMARK   52  A    between atoms: _123  and  _124
REMARK   53  A    between atoms: _127  and  _129
REMARK   54  A    between atoms: _129  and  _130
REMARK   55  A    between atoms: _129  and  _132
REMARK   56  A    between atoms: _132  and  _133
REMARK   57  A    between atoms: _138  and  _139
REMARK   58  A    between atoms: _141  and  _143
REMARK   59  A    between atoms: _143  and  _144
REMARK   60  A    between atoms: _143  and  _146
REMARK   61  A    between atoms: _146  and  _147
REMARK   62  A    between atoms: _147  and  _148
REMARK   63  A    between atoms: _148  and  _149
REMARK   64  A    between atoms: _149  and  _150
REMARK   65  A    between atoms: _154  and  _156
REMARK   66  A    between atoms: _156  and  _157
REMARK   67  A    between atoms: _156  and  _159
REMARK   68  A    between atoms: _159  and  _160
REMARK   69  A    between atoms: _163  and  _165
REMARK   70  A    between atoms: _165  and  _166
REMARK   71  A    between atoms: _165  and  _168
REMARK   72  A    between atoms: _168  and  _169
REMARK   73  A    between atoms: _175  and  _177
REMARK   74  A    between atoms: _177  and  _178
REMARK   75  A    between atoms: _177  and  _180
REMARK   76  A    between atoms: _183  and  _185
REMARK   77  A    between atoms: _185  and  _186
REMARK   78  A    between atoms: _185  and  _188
REMARK   79  A    between atoms: _188  and  _189
REMARK   80  A    between atoms: _192  and  _194
REMARK   81  A    between atoms: _194  and  _195
REMARK   82  A    between atoms: _194  and  _197
REMARK   83  A    between atoms: _197  and  _198
REMARK   84  A    between atoms: _198  and  _199
REMARK   85  A    between atoms: _199  and  _200
REMARK   86  A    between atoms: _210  and  _211
REMARK   87  A    between atoms: _216  and  _218
REMARK   88  A    between atoms: _218  and  _219
REMARK   89  A    between atoms: _218  and  _221
REMARK   90  A    between atoms: _221  and  _222
REMARK   91  A    between atoms: _222  and  _223
REMARK   92  A    between atoms: _226  and  _228
REMARK   93  A    between atoms: _228  and  _229
REMARK   94  A    between atoms: _228  and  _231
REMARK   95  A    between atoms: _231  and  _232
REMARK   96  A    between atoms: _232  and  _233
REMARK   97  A    between atoms: _236  and  _238
REMARK   98  A    between atoms: _238  and  _239
REMARK   99  A    between atoms: _238  and  _241
REMARK  100  A    between atoms: _241  and  _242
REMARK  101  A    between atoms: _242  and  _243
REMARK  102  A    between atoms: _246  and  _248
REMARK  103  A    between atoms: _248  and  _249
REMARK  104  A    between atoms: _248  and  _251
REMARK  105  A    between atoms: _251  and  _252
REMARK  106  A    between atoms: _254  and  _256
REMARK  107  A    between atoms: _256  and  _257
REMARK  108  A    between atoms: _256  and  _259
REMARK  109  A    between atoms: _259  and  _260
REMARK  110  A    between atoms: _266  and  _268
REMARK  111  A    between atoms: _268  and  _269
REMARK  112  A    between atoms: _268  and  _271
REMARK  113  A    between atoms: _271  and  _272
REMARK  114  A    between atoms: _275  and  _277
REMARK  115  A    between atoms: _277  and  _278
REMARK  116  A    between atoms: _281  and  _283
REMARK  117  A    between atoms: _283  and  _284
REMARK  118  A    between atoms: _283  and  _286
REMARK  119  A    between atoms: _286  and  _287
REMARK  120  A    between atoms: _287  and  _288
REMARK  121  A    between atoms: _291  and  _293
REMARK  122  A    between atoms: _293  and  _294
REMARK  123  A    between atoms: _293  and  _296
REMARK  124  A    between atoms: _296  and  _297
REMARK  125  A    between atoms: _302  and  _303
REMARK  126  A    between atoms: _305  and  _307
REMARK  127  A    between atoms: _307  and  _308
REMARK  128  A    between atoms: _307  and  _310
REMARK  129  A    between atoms: _310  and  _311
REMARK  130  A    between atoms: _316  and  _318
REMARK  131  A    between atoms: _318  and  _319
REMARK  132  A    between atoms: _318  and  _321
REMARK  133  A    between atoms: _321  and  _322
REMARK  134  A    between atoms: _325  and  _327
REMARK  135  A    between atoms: _327  and  _328
REMARK  136  A    between atoms: _327  and  _330
REMARK  137  A    between atoms: _330  and  _331
REMARK  138  A    between atoms: _331  and  _332
REMARK  139  A    between atoms: _335  and  _337
REMARK  140  A    between atoms: _337  and  _338
REMARK                            x       y       z     vdW  Elec       q    Type
REMARK                         _______ _______ _______ _____ _____    ______ ____
ROOT
ATOM      1  O   HOH     1      36.428  27.261 -40.018  0.00  0.00    +0.000 OA
ENDROOT
TORSDOF 0
REMARK  Name = ../refined-set-2016/2ri9/2ri9_pocket.pdb
REMARK  140 active torsions:
REMARK  status: ('A' for Active; 'I' for Inactive)
REMARK    1  A    between atoms: _1  and  _3
REMARK    2  A    between atoms: _3  and  _4
REMARK    3  A    between atoms: _3  and  _6
REMARK    4  A    between atoms: _6  and  _7
REMARK    5  A    between atoms: _7  and  _8
REMARK    6  A    between atoms: _8  and  _9
REMARK    7  A    between atoms: _18  and  _20
REMARK    8  A    between atoms: _20  and  _21
REMARK    9  A    between atoms: _20  and  _23
REMARK   10  A    between atoms: _23  and  _24
REMARK   11  A    between atoms: _27  and  _29
REMARK   12  A    between atoms: _29  and  _30
REMARK   13  A    between atoms: _29  and  _32
REMARK   14  A    between atoms: _32  and  _33
REMARK   15  A    between atoms: _39  and  _41
REMARK   16  A    between atoms: _41  and  _42
REMARK   17  A    between atoms: _41  and  _44
REMARK   18  A    between atoms: _44  and  _45
REMARK   19  A    between atoms: _45  and  _46
REMARK   20  A    between atoms: _49  and  _51
REMARK   21  A    between atoms: _51  and  _52
REMARK   22  A    between atoms: _51  and  _54
REMARK   23  A    between atoms: _54  and  _55
REMARK   24  A    between atoms: _58  and  _60
REMARK   25  A    between atoms: _60  and  _61
REMARK   26  A    between atoms: _60  and  _63
REMARK   27  A    between atoms: _63  and  _64
REMARK   28  A    between atoms: _64  and  _65
REMARK   29  A    between atoms: _65  and  _66
REMARK   30  A    between atoms: _75  and  _77
REMARK   31  A    between atoms: _77  and  _78
REMARK   32  A    between atoms: _81  and  _83
REMARK   33  A    between atoms: _83  and  _84
REMARK   34  A    between atoms: _83  and  _86
REMARK   35  A    between atoms: _86  and  _87
REMARK   36  A    between atoms: _90  and  _92
REMARK   37  A    between atoms: _92  and  _93
REMARK   38  A    between atoms: _95  and  _97
REMARK   39  A    between atoms: _97  and  _98
REMARK   40  A    between atoms: _100  and  _102
REMARK   41  A    between atoms: _102  and  _103
REMARK   42  A    between atoms: _102  and  _105
REMARK   43  A    between atoms: _105  and  _106
REMARK   44  A    between atoms: _109  and  _111
REMARK   45  A    between atoms: _111  and  _112
REMARK   46  A    between atoms: _111  and  _114
REMARK   47  A    between atoms: _114  and  _115
REMARK   48  A    between atoms: _117  and  _119
REMARK   49  A    between atoms: _119  and  _120
REMARK   50  A    between atoms: _119  and  _122
REMARK   51  A    between atoms: _122  and  _123
REMARK   52  A    between atoms: _123  and  _124
REMARK   53  A    between atoms: _127  and  _129
REMARK   54  A    between atoms: _129  and  _130
REMARK   55  A    between atoms: _129  and  _132
REMARK   56  A    between atoms: _132  and  _133
REMARK   57  A    between atoms: _138  and  _139
REMARK   58  A    between atoms: _141  and  _143
REMARK   59  A    between atoms: _143  and  _144
REMARK   60  A    between atoms: _143  and  _146
REMARK   61  A    between atoms: _146  and  _147
REMARK   62  A    between atoms: _147  and  _148
REMARK   63  A    between atoms: _148  and  _149
REMARK   64  A    between atoms: _149  and  _150
REMARK   65  A    between atoms: _154  and  _156
REMARK   66  A    between atoms: _156  and  _157
REMARK   67  A    between atoms: _156  and  _159
REMARK   68  A    between atoms: _159  and  _160
REMARK   69  A    between atoms: _163  and  _165
REMARK   70  A    between atoms: _165  and  _166
REMARK   71  A    between atoms: _165  and  _168
REMARK   72  A    between atoms: _168  and  _169
REMARK   73  A    between atoms: _175  and  _177
REMARK   74  A    between atoms: _177  and  _178
REMARK   75  A    between atoms: _177  and  _180
REMARK   76  A    between atoms: _183  and  _185
REMARK   77  A    between atoms: _185  and  _186
REMARK   78  A    between atoms: _185  and  _188
REMARK   79  A    between atoms: _188  and  _189
REMARK   80  A    between atoms: _192  and  _194
REMARK   81  A    between atoms: _194  and  _195
REMARK   82  A    between atoms: _194  and  _197
REMARK   83  A    between atoms: _197  and  _198
REMARK   84  A    between atoms: _198  and  _199
REMARK   85  A    between atoms: _199  and  _200
REMARK   86  A    between atoms: _210  and  _211
REMARK   87  A    between atoms: _216  and  _218
REMARK   88  A    between atoms: _218  and  _219
REMARK   89  A    between atoms: _218  and  _221
REMARK   90  A    between atoms: _221  and  _222
REMARK   91  A    between atoms: _222  and  _223
REMARK   92  A    between atoms: _226  and  _228
REMARK   93  A    between atoms: _228  and  _229
REMARK   94  A    between atoms: _228  and  _231
REMARK   95  A    between atoms: _231  and  _232
REMARK   96  A    between atoms: _232  and  _233
REMARK   97  A    between atoms: _236  and  _238
REMARK   98  A    between atoms: _238  and  _239
REMARK   99  A    between atoms: _238  and  _241
REMARK  100  A    between atoms: _241  and  _242
REMARK  101  A    between atoms: _242  and  _243
REMARK  102  A    between atoms: _246  and  _248
REMARK  103  A    between atoms: _248  and  _249
REMARK  104  A    between atoms: _248  and  _251
REMARK  105  A    between atoms: _251  and  _252
REMARK  106  A    between atoms: _254  and  _256
REMARK  107  A    between atoms: _256  and  _257
REMARK  108  A    between atoms: _256  and  _259
REMARK  109  A    between atoms: _259  and  _260
REMARK  110  A    between atoms: _266  and  _268
REMARK  111  A    between atoms: _268  and  _269
REMARK  112  A    between atoms: _268  and  _271
REMARK  113  A    between atoms: _271  and  _272
REMARK  114  A    between atoms: _275  and  _277
REMARK  115  A    between atoms: _277  and  _278
REMARK  116  A    between atoms: _281  and  _283
REMARK  117  A    between atoms: _283  and  _284
REMARK  118  A    between atoms: _283  and  _286
REMARK  119  A    between atoms: _286  and  _287
REMARK  120  A    between atoms: _287  and  _288
REMARK  121  A    between atoms: _291  and  _293
REMARK  122  A    between atoms: _293  and  _294
REMARK  123  A    between atoms: _293  and  _296
REMARK  124  A    between atoms: _296  and  _297
REMARK  125  A    between atoms: _302  and  _303
REMARK  126  A    between atoms: _305  and  _307
REMARK  127  A    between atoms: _307  and  _308
REMARK  128  A    between atoms: _307  and  _310
REMARK  129  A    between atoms: _310  and  _311
REMARK  130  A    between atoms: _316  and  _318
REMARK  131  A    between atoms: _318  and  _319
REMARK  132  A    between atoms: _318  and  _321
REMARK  133  A    between atoms: _321  and  _322
REMARK  134  A    between atoms: _325  and  _327
REMARK  135  A    between atoms: _327  and  _328
REMARK  136  A    between atoms: _327  and  _330
REMARK  137  A    between atoms: _330  and  _331
REMARK  138  A    between atoms: _331  and  _332
REMARK  139  A    between atoms: _335  and  _337
REMARK  140  A    between atoms: _337  and  _338
REMARK                            x       y       z     vdW  Elec       q    Type
REMARK                         _______ _______ _______ _____ _____    ______ ____
ROOT
ATOM      1  O   HOH     1      32.127  26.097 -41.391  0.00  0.00    +0.000 OA
ENDROOT
TORSDOF 0
REMARK  Name = ../refined-set-2016/2ri9/2ri9_pocket.pdb
REMARK  140 active torsions:
REMARK  status: ('A' for Active; 'I' for Inactive)
REMARK    1  A    between atoms: _1  and  _3
REMARK    2  A    between atoms: _3  and  _4
REMARK    3  A    between atoms: _3  and  _6
REMARK    4  A    between atoms: _6  and  _7
REMARK    5  A    between atoms: _7  and  _8
REMARK    6  A    between atoms: _8  and  _9
REMARK    7  A    between atoms: _18  and  _20
REMARK    8  A    between atoms: _20  and  _21
REMARK    9  A    between atoms: _20  and  _23
REMARK   10  A    between atoms: _23  and  _24
REMARK   11  A    between atoms: _27  and  _29
REMARK   12  A    between atoms: _29  and  _30
REMARK   13  A    between atoms: _29  and  _32
REMARK   14  A    between atoms: _32  and  _33
REMARK   15  A    between atoms: _39  and  _41
REMARK   16  A    between atoms: _41  and  _42
REMARK   17  A    between atoms: _41  and  _44
REMARK   18  A    between atoms: _44  and  _45
REMARK   19  A    between atoms: _45  and  _46
REMARK   20  A    between atoms: _49  and  _51
REMARK   21  A    between atoms: _51  and  _52
REMARK   22  A    between atoms: _51  and  _54
REMARK   23  A    between atoms: _54  and  _55
REMARK   24  A    between atoms: _58  and  _60
REMARK   25  A    between atoms: _60  and  _61
REMARK   26  A    between atoms: _60  and  _63
REMARK   27  A    between atoms: _63  and  _64
REMARK   28  A    between atoms: _64  and  _65
REMARK   29  A    between atoms: _65  and  _66
REMARK   30  A    between atoms: _75  and  _77
REMARK   31  A    between atoms: _77  and  _78
REMARK   32  A    between atoms: _81  and  _83
REMARK   33  A    between atoms: _83  and  _84
REMARK   34  A    between atoms: _83  and  _86
REMARK   35  A    between atoms: _86  and  _87
REMARK   36  A    between atoms: _90  and  _92
REMARK   37  A    between atoms: _92  and  _93
REMARK   38  A    between atoms: _95  and  _97
REMARK   39  A    between atoms: _97  and  _98
REMARK   40  A    between atoms: _100  and  _102
REMARK   41  A    between atoms: _102  and  _103
REMARK   42  A    between atoms: _102  and  _105
REMARK   43  A    between atoms: _105  and  _106
REMARK   44  A    between atoms: _109  and  _111
REMARK   45  A    between atoms: _111  and  _112
REMARK   46  A    between atoms: _111  and  _114
REMARK   47  A    between atoms: _114  and  _115
REMARK   48  A    between atoms: _117  and  _119
REMARK   49  A    between atoms: _119  and  _120
REMARK   50  A    between atoms: _119  and  _122
REMARK   51  A    between atoms: _122  and  _123
REMARK   52  A    between atoms: _123  and  _124
REMARK   53  A    between atoms: _127  and  _129
REMARK   54  A    between atoms: _129  and  _130
REMARK   55  A    between atoms: _129  and  _132
REMARK   56  A    between atoms: _132  and  _133
REMARK   57  A    between atoms: _138  and  _139
REMARK   58  A    between atoms: _141  and  _143
REMARK   59  A    between atoms: _143  and  _144
REMARK   60  A    between atoms: _143  and  _146
REMARK   61  A    between atoms: _146  and  _147
REMARK   62  A    between atoms: _147  and  _148
REMARK   63  A    between atoms: _148  and  _149
REMARK   64  A    between atoms: _149  and  _150
REMARK   65  A    between atoms: _154  and  _156
REMARK   66  A    between atoms: _156  and  _157
REMARK   67  A    between atoms: _156  and  _159
REMARK   68  A    between atoms: _159  and  _160
REMARK   69  A    between atoms: _163  and  _165
REMARK   70  A    between atoms: _165  and  _166
REMARK   71  A    between atoms: _165  and  _168
REMARK   72  A    between atoms: _168  and  _169
REMARK   73  A    between atoms: _175  and  _177
REMARK   74  A    between atoms: _177  and  _178
REMARK   75  A    between atoms: _177  and  _180
REMARK   76  A    between atoms: _183  and  _185
REMARK   77  A    between atoms: _185  and  _186
REMARK   78  A    between atoms: _185  and  _188
REMARK   79  A    between atoms: _188  and  _189
REMARK   80  A    between atoms: _192  and  _194
REMARK   81  A    between atoms: _194  and  _195
REMARK   82  A    between atoms: _194  and  _197
REMARK   83  A    between atoms: _197  and  _198
REMARK   84  A    between atoms: _198  and  _199
REMARK   85  A    between atoms: _199  and  _200
REMARK   86  A    between atoms: _210  and  _211
REMARK   87  A    between atoms: _216  and  _218
REMARK   88  A    between atoms: _218  and  _219
REMARK   89  A    between atoms: _218  and  _221
REMARK   90  A    between atoms: _221  and  _222
REMARK   91  A    between atoms: _222  and  _223
REMARK   92  A    between atoms: _226  and  _228
REMARK   93  A    between atoms: _228  and  _229
REMARK   94  A    between atoms: _228  and  _231
REMARK   95  A    between atoms: _231  and  _232
REMARK   96  A    between atoms: _232  and  _233
REMARK   97  A    between atoms: _236  and  _238
REMARK   98  A    between atoms: _238  and  _239
REMARK   99  A    between atoms: _238  and  _241
REMARK  100  A    between atoms: _241  and  _242
REMARK  101  A    between atoms: _242  and  _243
REMARK  102  A    between atoms: _246  and  _248
REMARK  103  A    between atoms: _248  and  _249
REMARK  104  A    between atoms: _248  and  _251
REMARK  105  A    between atoms: _251  and  _252
REMARK  106  A    between atoms: _254  and  _256
REMARK  107  A    between atoms: _256  and  _257
REMARK  108  A    between atoms: _256  and  _259
REMARK  109  A    between atoms: _259  and  _260
REMARK  110  A    between atoms: _266  and  _268
REMARK  111  A    between atoms: _268  and  _269
REMARK  112  A    between atoms: _268  and  _271
REMARK  113  A    between atoms: _271  and  _272
REMARK  114  A    between atoms: _275  and  _277
REMARK  115  A    between atoms: _277  and  _278
REMARK  116  A    between atoms: _281  and  _283
REMARK  117  A    between atoms: _283  and  _284
REMARK  118  A    between atoms: _283  and  _286
REMARK  119  A    between atoms: _286  and  _287
REMARK  120  A    between atoms: _287  and  _288
REMARK  121  A    between atoms: _291  and  _293
REMARK  122  A    between atoms: _293  and  _294
REMARK  123  A    between atoms: _293  and  _296
REMARK  124  A    between atoms: _296  and  _297
REMARK  125  A    between atoms: _302  and  _303
REMARK  126  A    between atoms: _305  and  _307
REMARK  127  A    between atoms: _307  and  _308
REMARK  128  A    between atoms: _307  and  _310
REMARK  129  A    between atoms: _310  and  _311
REMARK  130  A    between atoms: _316  and  _318
REMARK  131  A    between atoms: _318  and  _319
REMARK  132  A    between atoms: _318  and  _321
REMARK  133  A    between atoms: _321  and  _322
REMARK  134  A    between atoms: _325  and  _327
REMARK  135  A    between atoms: _327  and  _328
REMARK  136  A    between atoms: _327  and  _330
REMARK  137  A    between atoms: _330  and  _331
REMARK  138  A    between atoms: _331  and  _332
REMARK  139  A    between atoms: _335  and  _337
REMARK  140  A    between atoms: _337  and  _338
REMARK                            x       y       z     vdW  Elec       q    Type
REMARK                         _______ _______ _______ _____ _____    ______ ____
ROOT
ATOM      1  O   HOH     1      35.543  29.706 -34.333  0.00  0.00    +0.000 OA
ENDROOT
TORSDOF 0
REMARK  Name = ../refined-set-2016/2ri9/2ri9_pocket.pdb
REMARK  140 active torsions:
REMARK  status: ('A' for Active; 'I' for Inactive)
REMARK    1  A    between atoms: _1  and  _3
REMARK    2  A    between atoms: _3  and  _4
REMARK    3  A    between atoms: _3  and  _6
REMARK    4  A    between atoms: _6  and  _7
REMARK    5  A    between atoms: _7  and  _8
REMARK    6  A    between atoms: _8  and  _9
REMARK    7  A    between atoms: _18  and  _20
REMARK    8  A    between atoms: _20  and  _21
REMARK    9  A    between atoms: _20  and  _23
REMARK   10  A    between atoms: _23  and  _24
REMARK   11  A    between atoms: _27  and  _29
REMARK   12  A    between atoms: _29  and  _30
REMARK   13  A    between atoms: _29  and  _32
REMARK   14  A    between atoms: _32  and  _33
REMARK   15  A    between atoms: _39  and  _41
REMARK   16  A    between atoms: _41  and  _42
REMARK   17  A    between atoms: _41  and  _44
REMARK   18  A    between atoms: _44  and  _45
REMARK   19  A    between atoms: _45  and  _46
REMARK   20  A    between atoms: _49  and  _51
REMARK   21  A    between atoms: _51  and  _52
REMARK   22  A    between atoms: _51  and  _54
REMARK   23  A    between atoms: _54  and  _55
REMARK   24  A    between atoms: _58  and  _60
REMARK   25  A    between atoms: _60  and  _61
REMARK   26  A    between atoms: _60  and  _63
REMARK   27  A    between atoms: _63  and  _64
REMARK   28  A    between atoms: _64  and  _65
REMARK   29  A    between atoms: _65  and  _66
REMARK   30  A    between atoms: _75  and  _77
REMARK   31  A    between atoms: _77  and  _78
REMARK   32  A    between atoms: _81  and  _83
REMARK   33  A    between atoms: _83  and  _84
REMARK   34  A    between atoms: _83  and  _86
REMARK   35  A    between atoms: _86  and  _87
REMARK   36  A    between atoms: _90  and  _92
REMARK   37  A    between atoms: _92  and  _93
REMARK   38  A    between atoms: _95  and  _97
REMARK   39  A    between atoms: _97  and  _98
REMARK   40  A    between atoms: _100  and  _102
REMARK   41  A    between atoms: _102  and  _103
REMARK   42  A    between atoms: _102  and  _105
REMARK   43  A    between atoms: _105  and  _106
REMARK   44  A    between atoms: _109  and  _111
REMARK   45  A    between atoms: _111  and  _112
REMARK   46  A    between atoms: _111  and  _114
REMARK   47  A    between atoms: _114  and  _115
REMARK   48  A    between atoms: _117  and  _119
REMARK   49  A    between atoms: _119  and  _120
REMARK   50  A    between atoms: _119  and  _122
REMARK   51  A    between atoms: _122  and  _123
REMARK   52  A    between atoms: _123  and  _124
REMARK   53  A    between atoms: _127  and  _129
REMARK   54  A    between atoms: _129  and  _130
REMARK   55  A    between atoms: _129  and  _132
REMARK   56  A    between atoms: _132  and  _133
REMARK   57  A    between atoms: _138  and  _139
REMARK   58  A    between atoms: _141  and  _143
REMARK   59  A    between atoms: _143  and  _144
REMARK   60  A    between atoms: _143  and  _146
REMARK   61  A    between atoms: _146  and  _147
REMARK   62  A    between atoms: _147  and  _148
REMARK   63  A    between atoms: _148  and  _149
REMARK   64  A    between atoms: _149  and  _150
REMARK   65  A    between atoms: _154  and  _156
REMARK   66  A    between atoms: _156  and  _157
REMARK   67  A    between atoms: _156  and  _159
REMARK   68  A    between atoms: _159  and  _160
REMARK   69  A    between atoms: _163  and  _165
REMARK   70  A    between atoms: _165  and  _166
REMARK   71  A    between atoms: _165  and  _168
REMARK   72  A    between atoms: _168  and  _169
REMARK   73  A    between atoms: _175  and  _177
REMARK   74  A    between atoms: _177  and  _178
REMARK   75  A    between atoms: _177  and  _180
REMARK   76  A    between atoms: _183  and  _185
REMARK   77  A    between atoms: _185  and  _186
REMARK   78  A    between atoms: _185  and  _188
REMARK   79  A    between atoms: _188  and  _189
REMARK   80  A    between atoms: _192  and  _194
REMARK   81  A    between atoms: _194  and  _195
REMARK   82  A    between atoms: _194  and  _197
REMARK   83  A    between atoms: _197  and  _198
REMARK   84  A    between atoms: _198  and  _199
REMARK   85  A    between atoms: _199  and  _200
REMARK   86  A    between atoms: _210  and  _211
REMARK   87  A    between atoms: _216  and  _218
REMARK   88  A    between atoms: _218  and  _219
REMARK   89  A    between atoms: _218  and  _221
REMARK   90  A    between atoms: _221  and  _222
REMARK   91  A    between atoms: _222  and  _223
REMARK   92  A    between atoms: _226  and  _228
REMARK   93  A    between atoms: _228  and  _229
REMARK   94  A    between atoms: _228  and  _231
REMARK   95  A    between atoms: _231  and  _232
REMARK   96  A    between atoms: _232  and  _233
REMARK   97  A    between atoms: _236  and  _238
REMARK   98  A    between atoms: _238  and  _239
REMARK   99  A    between atoms: _238  and  _241
REMARK  100  A    between atoms: _241  and  _242
REMARK  101  A    between atoms: _242  and  _243
REMARK  102  A    between atoms: _246  and  _248
REMARK  103  A    between atoms: _248  and  _249
REMARK  104  A    between atoms: _248  and  _251
REMARK  105  A    between atoms: _251  and  _252
REMARK  106  A    between atoms: _254  and  _256
REMARK  107  A    between atoms: _256  and  _257
REMARK  108  A    between atoms: _256  and  _259
REMARK  109  A    between atoms: _259  and  _260
REMARK  110  A    between atoms: _266  and  _268
REMARK  111  A    between atoms: _268  and  _269
REMARK  112  A    between atoms: _268  and  _271
REMARK  113  A    between atoms: _271  and  _272
REMARK  114  A    between atoms: _275  and  _277
REMARK  115  A    between atoms: _277  and  _278
REMARK  116  A    between atoms: _281  and  _283
REMARK  117  A    between atoms: _283  and  _284
REMARK  118  A    between atoms: _283  and  _286
REMARK  119  A    between atoms: _286  and  _287
REMARK  120  A    between atoms: _287  and  _288
REMARK  121  A    between atoms: _291  and  _293
REMARK  122  A    between atoms: _293  and  _294
REMARK  123  A    between atoms: _293  and  _296
REMARK  124  A    between atoms: _296  and  _297
REMARK  125  A    between atoms: _302  and  _303
REMARK  126  A    between atoms: _305  and  _307
REMARK  127  A    between atoms: _307  and  _308
REMARK  128  A    between atoms: _307  and  _310
REMARK  129  A    between atoms: _310  and  _311
REMARK  130  A    between atoms: _316  and  _318
REMARK  131  A    between atoms: _318  and  _319
REMARK  132  A    between atoms: _318  and  _321
REMARK  133  A    between atoms: _321  and  _322
REMARK  134  A    between atoms: _325  and  _327
REMARK  135  A    between atoms: _327  and  _328
REMARK  136  A    between atoms: _327  and  _330
REMARK  137  A    between atoms: _330  and  _331
REMARK  138  A    between atoms: _331  and  _332
REMARK  139  A    between atoms: _335  and  _337
REMARK  140  A    between atoms: _337  and  _338
REMARK                            x       y       z     vdW  Elec       q    Type
REMARK                         _______ _______ _______ _____ _____    ______ ____
ROOT
ATOM      1  O   HOH     1      29.296  24.798 -38.423  0.00  0.00    +0.000 OA
ENDROOT
TORSDOF 0
REMARK  Name = ../refined-set-2016/2ri9/2ri9_pocket.pdb
REMARK  140 active torsions:
REMARK  status: ('A' for Active; 'I' for Inactive)
REMARK    1  A    between atoms: _1  and  _3
REMARK    2  A    between atoms: _3  and  _4
REMARK    3  A    between atoms: _3  and  _6
REMARK    4  A    between atoms: _6  and  _7
REMARK    5  A    between atoms: _7  and  _8
REMARK    6  A    between atoms: _8  and  _9
REMARK    7  A    between atoms: _18  and  _20
REMARK    8  A    between atoms: _20  and  _21
REMARK    9  A    between atoms: _20  and  _23
REMARK   10  A    between atoms: _23  and  _24
REMARK   11  A    between atoms: _27  and  _29
REMARK   12  A    between atoms: _29  and  _30
REMARK   13  A    between atoms: _29  and  _32
REMARK   14  A    between atoms: _32  and  _33
REMARK   15  A    between atoms: _39  and  _41
REMARK   16  A    between atoms: _41  and  _42
REMARK   17  A    between atoms: _41  and  _44
REMARK   18  A    between atoms: _44  and  _45
REMARK   19  A    between atoms: _45  and  _46
REMARK   20  A    between atoms: _49  and  _51
REMARK   21  A    between atoms: _51  and  _52
REMARK   22  A    between atoms: _51  and  _54
REMARK   23  A    between atoms: _54  and  _55
REMARK   24  A    between atoms: _58  and  _60
REMARK   25  A    between atoms: _60  and  _61
REMARK   26  A    between atoms: _60  and  _63
REMARK   27  A    between atoms: _63  and  _64
REMARK   28  A    between atoms: _64  and  _65
REMARK   29  A    between atoms: _65  and  _66
REMARK   30  A    between atoms: _75  and  _77
REMARK   31  A    between atoms: _77  and  _78
REMARK   32  A    between atoms: _81  and  _83
REMARK   33  A    between atoms: _83  and  _84
REMARK   34  A    between atoms: _83  and  _86
REMARK   35  A    between atoms: _86  and  _87
REMARK   36  A    between atoms: _90  and  _92
REMARK   37  A    between atoms: _92  and  _93
REMARK   38  A    between atoms: _95  and  _97
REMARK   39  A    between atoms: _97  and  _98
REMARK   40  A    between atoms: _100  and  _102
REMARK   41  A    between atoms: _102  and  _103
REMARK   42  A    between atoms: _102  and  _105
REMARK   43  A    between atoms: _105  and  _106
REMARK   44  A    between atoms: _109  and  _111
REMARK   45  A    between atoms: _111  and  _112
REMARK   46  A    between atoms: _111  and  _114
REMARK   47  A    between atoms: _114  and  _115
REMARK   48  A    between atoms: _117  and  _119
REMARK   49  A    between atoms: _119  and  _120
REMARK   50  A    between atoms: _119  and  _122
REMARK   51  A    between atoms: _122  and  _123
REMARK   52  A    between atoms: _123  and  _124
REMARK   53  A    between atoms: _127  and  _129
REMARK   54  A    between atoms: _129  and  _130
REMARK   55  A    between atoms: _129  and  _132
REMARK   56  A    between atoms: _132  and  _133
REMARK   57  A    between atoms: _138  and  _139
REMARK   58  A    between atoms: _141  and  _143
REMARK   59  A    between atoms: _143  and  _144
REMARK   60  A    between atoms: _143  and  _146
REMARK   61  A    between atoms: _146  and  _147
REMARK   62  A    between atoms: _147  and  _148
REMARK   63  A    between atoms: _148  and  _149
REMARK   64  A    between atoms: _149  and  _150
REMARK   65  A    between atoms: _154  and  _156
REMARK   66  A    between atoms: _156  and  _157
REMARK   67  A    between atoms: _156  and  _159
REMARK   68  A    between atoms: _159  and  _160
REMARK   69  A    between atoms: _163  and  _165
REMARK   70  A    between atoms: _165  and  _166
REMARK   71  A    between atoms: _165  and  _168
REMARK   72  A    between atoms: _168  and  _169
REMARK   73  A    between atoms: _175  and  _177
REMARK   74  A    between atoms: _177  and  _178
REMARK   75  A    between atoms: _177  and  _180
REMARK   76  A    between atoms: _183  and  _185
REMARK   77  A    between atoms: _185  and  _186
REMARK   78  A    between atoms: _185  and  _188
REMARK   79  A    between atoms: _188  and  _189
REMARK   80  A    between atoms: _192  and  _194
REMARK   81  A    between atoms: _194  and  _195
REMARK   82  A    between atoms: _194  and  _197
REMARK   83  A    between atoms: _197  and  _198
REMARK   84  A    between atoms: _198  and  _199
REMARK   85  A    between atoms: _199  and  _200
REMARK   86  A    between atoms: _210  and  _211
REMARK   87  A    between atoms: _216  and  _218
REMARK   88  A    between atoms: _218  and  _219
REMARK   89  A    between atoms: _218  and  _221
REMARK   90  A    between atoms: _221  and  _222
REMARK   91  A    between atoms: _222  and  _223
REMARK   92  A    between atoms: _226  and  _228
REMARK   93  A    between atoms: _228  and  _229
REMARK   94  A    between atoms: _228  and  _231
REMARK   95  A    between atoms: _231  and  _232
REMARK   96  A    between atoms: _232  and  _233
REMARK   97  A    between atoms: _236  and  _238
REMARK   98  A    between atoms: _238  and  _239
REMARK   99  A    between atoms: _238  and  _241
REMARK  100  A    between atoms: _241  and  _242
REMARK  101  A    between atoms: _242  and  _243
REMARK  102  A    between atoms: _246  and  _248
REMARK  103  A    between atoms: _248  and  _249
REMARK  104  A    between atoms: _248  and  _251
REMARK  105  A    between atoms: _251  and  _252
REMARK  106  A    between atoms: _254  and  _256
REMARK  107  A    between atoms: _256  and  _257
REMARK  108  A    between atoms: _256  and  _259
REMARK  109  A    between atoms: _259  and  _260
REMARK  110  A    between atoms: _266  and  _268
REMARK  111  A    between atoms: _268  and  _269
REMARK  112  A    between atoms: _268  and  _271
REMARK  113  A    between atoms: _271  and  _272
REMARK  114  A    between atoms: _275  and  _277
REMARK  115  A    between atoms: _277  and  _278
REMARK  116  A    between atoms: _281  and  _283
REMARK  117  A    between atoms: _283  and  _284
REMARK  118  A    between atoms: _283  and  _286
REMARK  119  A    between atoms: _286  and  _287
REMARK  120  A    between atoms: _287  and  _288
REMARK  121  A    between atoms: _291  and  _293
REMARK  122  A    between atoms: _293  and  _294
REMARK  123  A    between atoms: _293  and  _296
REMARK  124  A    between atoms: _296  and  _297
REMARK  125  A    between atoms: _302  and  _303
REMARK  126  A    between atoms: _305  and  _307
REMARK  127  A    between atoms: _307  and  _308
REMARK  128  A    between atoms: _307  and  _310
REMARK  129  A    between atoms: _310  and  _311
REMARK  130  A    between atoms: _316  and  _318
REMARK  131  A    between atoms: _318  and  _319
REMARK  132  A    between atoms: _318  and  _321
REMARK  133  A    between atoms: _321  and  _322
REMARK  134  A    between atoms: _325  and  _327
REMARK  135  A    between atoms: _327  and  _328
REMARK  136  A    between atoms: _327  and  _330
REMARK  137  A    between atoms: _330  and  _331
REMARK  138  A    between atoms: _331  and  _332
REMARK  139  A    between atoms: _335  and  _337
REMARK  140  A    between atoms: _337  and  _338
REMARK                            x       y       z     vdW  Elec       q    Type
REMARK                         _______ _______ _______ _____ _____    ______ ____
ROOT
ATOM      1  O   HOH     1      33.561  26.245 -38.444  0.00  0.00    +0.000 OA
ENDROOT
TORSDOF 0
REMARK  Name = ../refined-set-2016/2ri9/2ri9_pocket.pdb
REMARK  140 active torsions:
REMARK  status: ('A' for Active; 'I' for Inactive)
REMARK    1  A    between atoms: _1  and  _3
REMARK    2  A    between atoms: _3  and  _4
REMARK    3  A    between atoms: _3  and  _6
REMARK    4  A    between atoms: _6  and  _7
REMARK    5  A    between atoms: _7  and  _8
REMARK    6  A    between atoms: _8  and  _9
REMARK    7  A    between atoms: _18  and  _20
REMARK    8  A    between atoms: _20  and  _21
REMARK    9  A    between atoms: _20  and  _23
REMARK   10  A    between atoms: _23  and  _24
REMARK   11  A    between atoms: _27  and  _29
REMARK   12  A    between atoms: _29  and  _30
REMARK   13  A    between atoms: _29  and  _32
REMARK   14  A    between atoms: _32  and  _33
REMARK   15  A    between atoms: _39  and  _41
REMARK   16  A    between atoms: _41  and  _42
REMARK   17  A    between atoms: _41  and  _44
REMARK   18  A    between atoms: _44  and  _45
REMARK   19  A    between atoms: _45  and  _46
REMARK   20  A    between atoms: _49  and  _51
REMARK   21  A    between atoms: _51  and  _52
REMARK   22  A    between atoms: _51  and  _54
REMARK   23  A    between atoms: _54  and  _55
REMARK   24  A    between atoms: _58  and  _60
REMARK   25  A    between atoms: _60  and  _61
REMARK   26  A    between atoms: _60  and  _63
REMARK   27  A    between atoms: _63  and  _64
REMARK   28  A    between atoms: _64  and  _65
REMARK   29  A    between atoms: _65  and  _66
REMARK   30  A    between atoms: _75  and  _77
REMARK   31  A    between atoms: _77  and  _78
REMARK   32  A    between atoms: _81  and  _83
REMARK   33  A    between atoms: _83  and  _84
REMARK   34  A    between atoms: _83  and  _86
REMARK   35  A    between atoms: _86  and  _87
REMARK   36  A    between atoms: _90  and  _92
REMARK   37  A    between atoms: _92  and  _93
REMARK   38  A    between atoms: _95  and  _97
REMARK   39  A    between atoms: _97  and  _98
REMARK   40  A    between atoms: _100  and  _102
REMARK   41  A    between atoms: _102  and  _103
REMARK   42  A    between atoms: _102  and  _105
REMARK   43  A    between atoms: _105  and  _106
REMARK   44  A    between atoms: _109  and  _111
REMARK   45  A    between atoms: _111  and  _112
REMARK   46  A    between atoms: _111  and  _114
REMARK   47  A    between atoms: _114  and  _115
REMARK   48  A    between atoms: _117  and  _119
REMARK   49  A    between atoms: _119  and  _120
REMARK   50  A    between atoms: _119  and  _122
REMARK   51  A    between atoms: _122  and  _123
REMARK   52  A    between atoms: _123  and  _124
REMARK   53  A    between atoms: _127  and  _129
REMARK   54  A    between atoms: _129  and  _130
REMARK   55  A    between atoms: _129  and  _132
REMARK   56  A    between atoms: _132  and  _133
REMARK   57  A    between atoms: _138  and  _139
REMARK   58  A    between atoms: _141  and  _143
REMARK   59  A    between atoms: _143  and  _144
REMARK   60  A    between atoms: _143  and  _146
REMARK   61  A    between atoms: _146  and  _147
REMARK   62  A    between atoms: _147  and  _148
REMARK   63  A    between atoms: _148  and  _149
REMARK   64  A    between atoms: _149  and  _150
REMARK   65  A    between atoms: _154  and  _156
REMARK   66  A    between atoms: _156  and  _157
REMARK   67  A    between atoms: _156  and  _159
REMARK   68  A    between atoms: _159  and  _160
REMARK   69  A    between atoms: _163  and  _165
REMARK   70  A    between atoms: _165  and  _166
REMARK   71  A    between atoms: _165  and  _168
REMARK   72  A    between atoms: _168  and  _169
REMARK   73  A    between atoms: _175  and  _177
REMARK   74  A    between atoms: _177  and  _178
REMARK   75  A    between atoms: _177  and  _180
REMARK   76  A    between atoms: _183  and  _185
REMARK   77  A    between atoms: _185  and  _186
REMARK   78  A    between atoms: _185  and  _188
REMARK   79  A    between atoms: _188  and  _189
REMARK   80  A    between atoms: _192  and  _194
REMARK   81  A    between atoms: _194  and  _195
REMARK   82  A    between atoms: _194  and  _197
REMARK   83  A    between atoms: _197  and  _198
REMARK   84  A    between atoms: _198  and  _199
REMARK   85  A    between atoms: _199  and  _200
REMARK   86  A    between atoms: _210  and  _211
REMARK   87  A    between atoms: _216  and  _218
REMARK   88  A    between atoms: _218  and  _219
REMARK   89  A    between atoms: _218  and  _221
REMARK   90  A    between atoms: _221  and  _222
REMARK   91  A    between atoms: _222  and  _223
REMARK   92  A    between atoms: _226  and  _228
REMARK   93  A    between atoms: _228  and  _229
REMARK   94  A    between atoms: _228  and  _231
REMARK   95  A    between atoms: _231  and  _232
REMARK   96  A    between atoms: _232  and  _233
REMARK   97  A    between atoms: _236  and  _238
REMARK   98  A    between atoms: _238  and  _239
REMARK   99  A    between atoms: _238  and  _241
REMARK  100  A    between atoms: _241  and  _242
REMARK  101  A    between atoms: _242  and  _243
REMARK  102  A    between atoms: _246  and  _248
REMARK  103  A    between atoms: _248  and  _249
REMARK  104  A    between atoms: _248  and  _251
REMARK  105  A    between atoms: _251  and  _252
REMARK  106  A    between atoms: _254  and  _256
REMARK  107  A    between atoms: _256  and  _257
REMARK  108  A    between atoms: _256  and  _259
REMARK  109  A    between atoms: _259  and  _260
REMARK  110  A    between atoms: _266  and  _268
REMARK  111  A    between atoms: _268  and  _269
REMARK  112  A    between atoms: _268  and  _271
REMARK  113  A    between atoms: _271  and  _272
REMARK  114  A    between atoms: _275  and  _277
REMARK  115  A    between atoms: _277  and  _278
REMARK  116  A    between atoms: _281  and  _283
REMARK  117  A    between atoms: _283  and  _284
REMARK  118  A    between atoms: _283  and  _286
REMARK  119  A    between atoms: _286  and  _287
REMARK  120  A    between atoms: _287  and  _288
REMARK  121  A    between atoms: _291  and  _293
REMARK  122  A    between atoms: _293  and  _294
REMARK  123  A    between atoms: _293  and  _296
REMARK  124  A    between atoms: _296  and  _297
REMARK  125  A    between atoms: _302  and  _303
REMARK  126  A    between atoms: _305  and  _307
REMARK  127  A    between atoms: _307  and  _308
REMARK  128  A    between atoms: _307  and  _310
REMARK  129  A    between atoms: _310  and  _311
REMARK  130  A    between atoms: _316  and  _318
REMARK  131  A    between atoms: _318  and  _319
REMARK  132  A    between atoms: _318  and  _321
REMARK  133  A    between atoms: _321  and  _322
REMARK  134  A    between atoms: _325  and  _327
REMARK  135  A    between atoms: _327  and  _328
REMARK  136  A    between atoms: _327  and  _330
REMARK  137  A    between atoms: _330  and  _331
REMARK  138  A    between atoms: _331  and  _332
REMARK  139  A    between atoms: _335  and  _337
REMARK  140  A    between atoms: _337  and  _338
REMARK                            x       y       z     vdW  Elec       q    Type
REMARK                         _______ _______ _______ _____ _____    ______ ____
ROOT
ATOM      1  O   HOH     1      31.792  23.673 -37.312  0.00  0.00    +0.000 OA
ENDROOT
TORSDOF 0
REMARK  Name = ../refined-set-2016/2ri9/2ri9_pocket.pdb
REMARK  140 active torsions:
REMARK  status: ('A' for Active; 'I' for Inactive)
REMARK    1  A    between atoms: _1  and  _3
REMARK    2  A    between atoms: _3  and  _4
REMARK    3  A    between atoms: _3  and  _6
REMARK    4  A    between atoms: _6  and  _7
REMARK    5  A    between atoms: _7  and  _8
REMARK    6  A    between atoms: _8  and  _9
REMARK    7  A    between atoms: _18  and  _20
REMARK    8  A    between atoms: _20  and  _21
REMARK    9  A    between atoms: _20  and  _23
REMARK   10  A    between atoms: _23  and  _24
REMARK   11  A    between atoms: _27  and  _29
REMARK   12  A    between atoms: _29  and  _30
REMARK   13  A    between atoms: _29  and  _32
REMARK   14  A    between atoms: _32  and  _33
REMARK   15  A    between atoms: _39  and  _41
REMARK   16  A    between atoms: _41  and  _42
REMARK   17  A    between atoms: _41  and  _44
REMARK   18  A    between atoms: _44  and  _45
REMARK   19  A    between atoms: _45  and  _46
REMARK   20  A    between atoms: _49  and  _51
REMARK   21  A    between atoms: _51  and  _52
REMARK   22  A    between atoms: _51  and  _54
REMARK   23  A    between atoms: _54  and  _55
REMARK   24  A    between atoms: _58  and  _60
REMARK   25  A    between atoms: _60  and  _61
REMARK   26  A    between atoms: _60  and  _63
REMARK   27  A    between atoms: _63  and  _64
REMARK   28  A    between atoms: _64  and  _65
REMARK   29  A    between atoms: _65  and  _66
REMARK   30  A    between atoms: _75  and  _77
REMARK   31  A    between atoms: _77  and  _78
REMARK   32  A    between atoms: _81  and  _83
REMARK   33  A    between atoms: _83  and  _84
REMARK   34  A    between atoms: _83  and  _86
REMARK   35  A    between atoms: _86  and  _87
REMARK   36  A    between atoms: _90  and  _92
REMARK   37  A    between atoms: _92  and  _93
REMARK   38  A    between atoms: _95  and  _97
REMARK   39  A    between atoms: _97  and  _98
REMARK   40  A    between atoms: _100  and  _102
REMARK   41  A    between atoms: _102  and  _103
REMARK   42  A    between atoms: _102  and  _105
REMARK   43  A    between atoms: _105  and  _106
REMARK   44  A    between atoms: _109  and  _111
REMARK   45  A    between atoms: _111  and  _112
REMARK   46  A    between atoms: _111  and  _114
REMARK   47  A    between atoms: _114  and  _115
REMARK   48  A    between atoms: _117  and  _119
REMARK   49  A    between atoms: _119  and  _120
REMARK   50  A    between atoms: _119  and  _122
REMARK   51  A    between atoms: _122  and  _123
REMARK   52  A    between atoms: _123  and  _124
REMARK   53  A    between atoms: _127  and  _129
REMARK   54  A    between atoms: _129  and  _130
REMARK   55  A    between atoms: _129  and  _132
REMARK   56  A    between atoms: _132  and  _133
REMARK   57  A    between atoms: _138  and  _139
REMARK   58  A    between atoms: _141  and  _143
REMARK   59  A    between atoms: _143  and  _144
REMARK   60  A    between atoms: _143  and  _146
REMARK   61  A    between atoms: _146  and  _147
REMARK   62  A    between atoms: _147  and  _148
REMARK   63  A    between atoms: _148  and  _149
REMARK   64  A    between atoms: _149  and  _150
REMARK   65  A    between atoms: _154  and  _156
REMARK   66  A    between atoms: _156  and  _157
REMARK   67  A    between atoms: _156  and  _159
REMARK   68  A    between atoms: _159  and  _160
REMARK   69  A    between atoms: _163  and  _165
REMARK   70  A    between atoms: _165  and  _166
REMARK   71  A    between atoms: _165  and  _168
REMARK   72  A    between atoms: _168  and  _169
REMARK   73  A    between atoms: _175  and  _177
REMARK   74  A    between atoms: _177  and  _178
REMARK   75  A    between atoms: _177  and  _180
REMARK   76  A    between atoms: _183  and  _185
REMARK   77  A    between atoms: _185  and  _186
REMARK   78  A    between atoms: _185  and  _188
REMARK   79  A    between atoms: _188  and  _189
REMARK   80  A    between atoms: _192  and  _194
REMARK   81  A    between atoms: _194  and  _195
REMARK   82  A    between atoms: _194  and  _197
REMARK   83  A    between atoms: _197  and  _198
REMARK   84  A    between atoms: _198  and  _199
REMARK   85  A    between atoms: _199  and  _200
REMARK   86  A    between atoms: _210  and  _211
REMARK   87  A    between atoms: _216  and  _218
REMARK   88  A    between atoms: _218  and  _219
REMARK   89  A    between atoms: _218  and  _221
REMARK   90  A    between atoms: _221  and  _222
REMARK   91  A    between atoms: _222  and  _223
REMARK   92  A    between atoms: _226  and  _228
REMARK   93  A    between atoms: _228  and  _229
REMARK   94  A    between atoms: _228  and  _231
REMARK   95  A    between atoms: _231  and  _232
REMARK   96  A    between atoms: _232  and  _233
REMARK   97  A    between atoms: _236  and  _238
REMARK   98  A    between atoms: _238  and  _239
REMARK   99  A    between atoms: _238  and  _241
REMARK  100  A    between atoms: _241  and  _242
REMARK  101  A    between atoms: _242  and  _243
REMARK  102  A    between atoms: _246  and  _248
REMARK  103  A    between atoms: _248  and  _249
REMARK  104  A    between atoms: _248  and  _251
REMARK  105  A    between atoms: _251  and  _252
REMARK  106  A    between atoms: _254  and  _256
REMARK  107  A    between atoms: _256  and  _257
REMARK  108  A    between atoms: _256  and  _259
REMARK  109  A    between atoms: _259  and  _260
REMARK  110  A    between atoms: _266  and  _268
REMARK  111  A    between atoms: _268  and  _269
REMARK  112  A    between atoms: _268  and  _271
REMARK  113  A    between atoms: _271  and  _272
REMARK  114  A    between atoms: _275  and  _277
REMARK  115  A    between atoms: _277  and  _278
REMARK  116  A    between atoms: _281  and  _283
REMARK  117  A    between atoms: _283  and  _284
REMARK  118  A    between atoms: _283  and  _286
REMARK  119  A    between atoms: _286  and  _287
REMARK  120  A    between atoms: _287  and  _288
REMARK  121  A    between atoms: _291  and  _293
REMARK  122  A    between atoms: _293  and  _294
REMARK  123  A    between atoms: _293  and  _296
REMARK  124  A    between atoms: _296  and  _297
REMARK  125  A    between atoms: _302  and  _303
REMARK  126  A    between atoms: _305  and  _307
REMARK  127  A    between atoms: _307  and  _308
REMARK  128  A    between atoms: _307  and  _310
REMARK  129  A    between atoms: _310  and  _311
REMARK  130  A    between atoms: _316  and  _318
REMARK  131  A    between atoms: _318  and  _319
REMARK  132  A    between atoms: _318  and  _321
REMARK  133  A    between atoms: _321  and  _322
REMARK  134  A    between atoms: _325  and  _327
REMARK  135  A    between atoms: _327  and  _328
REMARK  136  A    between atoms: _327  and  _330
REMARK  137  A    between atoms: _330  and  _331
REMARK  138  A    between atoms: _331  and  _332
REMARK  139  A    between atoms: _335  and  _337
REMARK  140  A    between atoms: _337  and  _338
REMARK                            x       y       z     vdW  Elec       q    Type
REMARK                         _______ _______ _______ _____ _____    ______ ____
ROOT
ATOM      1  O   HOH     1      31.699  25.012 -39.355  0.00  0.00    +0.000 OA
ENDROOT
TORSDOF 0
REMARK  Name = ../refined-set-2016/2ri9/2ri9_pocket.pdb
REMARK  140 active torsions:
REMARK  status: ('A' for Active; 'I' for Inactive)
REMARK    1  A    between atoms: _1  and  _3
REMARK    2  A    between atoms: _3  and  _4
REMARK    3  A    between atoms: _3  and  _6
REMARK    4  A    between atoms: _6  and  _7
REMARK    5  A    between atoms: _7  and  _8
REMARK    6  A    between atoms: _8  and  _9
REMARK    7  A    between atoms: _18  and  _20
REMARK    8  A    between atoms: _20  and  _21
REMARK    9  A    between atoms: _20  and  _23
REMARK   10  A    between atoms: _23  and  _24
REMARK   11  A    between atoms: _27  and  _29
REMARK   12  A    between atoms: _29  and  _30
REMARK   13  A    between atoms: _29  and  _32
REMARK   14  A    between atoms: _32  and  _33
REMARK   15  A    between atoms: _39  and  _41
REMARK   16  A    between atoms: _41  and  _42
REMARK   17  A    between atoms: _41  and  _44
REMARK   18  A    between atoms: _44  and  _45
REMARK   19  A    between atoms: _45  and  _46
REMARK   20  A    between atoms: _49  and  _51
REMARK   21  A    between atoms: _51  and  _52
REMARK   22  A    between atoms: _51  and  _54
REMARK   23  A    between atoms: _54  and  _55
REMARK   24  A    between atoms: _58  and  _60
REMARK   25  A    between atoms: _60  and  _61
REMARK   26  A    between atoms: _60  and  _63
REMARK   27  A    between atoms: _63  and  _64
REMARK   28  A    between atoms: _64  and  _65
REMARK   29  A    between atoms: _65  and  _66
REMARK   30  A    between atoms: _75  and  _77
REMARK   31  A    between atoms: _77  and  _78
REMARK   32  A    between atoms: _81  and  _83
REMARK   33  A    between atoms: _83  and  _84
REMARK   34  A    between atoms: _83  and  _86
REMARK   35  A    between atoms: _86  and  _87
REMARK   36  A    between atoms: _90  and  _92
REMARK   37  A    between atoms: _92  and  _93
REMARK   38  A    between atoms: _95  and  _97
REMARK   39  A    between atoms: _97  and  _98
REMARK   40  A    between atoms: _100  and  _102
REMARK   41  A    between atoms: _102  and  _103
REMARK   42  A    between atoms: _102  and  _105
REMARK   43  A    between atoms: _105  and  _106
REMARK   44  A    between atoms: _109  and  _111
REMARK   45  A    between atoms: _111  and  _112
REMARK   46  A    between atoms: _111  and  _114
REMARK   47  A    between atoms: _114  and  _115
REMARK   48  A    between atoms: _117  and  _119
REMARK   49  A    between atoms: _119  and  _120
REMARK   50  A    between atoms: _119  and  _122
REMARK   51  A    between atoms: _122  and  _123
REMARK   52  A    between atoms: _123  and  _124
REMARK   53  A    between atoms: _127  and  _129
REMARK   54  A    between atoms: _129  and  _130
REMARK   55  A    between atoms: _129  and  _132
REMARK   56  A    between atoms: _132  and  _133
REMARK   57  A    between atoms: _138  and  _139
REMARK   58  A    between atoms: _141  and  _143
REMARK   59  A    between atoms: _143  and  _144
REMARK   60  A    between atoms: _143  and  _146
REMARK   61  A    between atoms: _146  and  _147
REMARK   62  A    between atoms: _147  and  _148
REMARK   63  A    between atoms: _148  and  _149
REMARK   64  A    between atoms: _149  and  _150
REMARK   65  A    between atoms: _154  and  _156
REMARK   66  A    between atoms: _156  and  _157
REMARK   67  A    between atoms: _156  and  _159
REMARK   68  A    between atoms: _159  and  _160
REMARK   69  A    between atoms: _163  and  _165
REMARK   70  A    between atoms: _165  and  _166
REMARK   71  A    between atoms: _165  and  _168
REMARK   72  A    between atoms: _168  and  _169
REMARK   73  A    between atoms: _175  and  _177
REMARK   74  A    between atoms: _177  and  _178
REMARK   75  A    between atoms: _177  and  _180
REMARK   76  A    between atoms: _183  and  _185
REMARK   77  A    between atoms: _185  and  _186
REMARK   78  A    between atoms: _185  and  _188
REMARK   79  A    between atoms: _188  and  _189
REMARK   80  A    between atoms: _192  and  _194
REMARK   81  A    between atoms: _194  and  _195
REMARK   82  A    between atoms: _194  and  _197
REMARK   83  A    between atoms: _197  and  _198
REMARK   84  A    between atoms: _198  and  _199
REMARK   85  A    between atoms: _199  and  _200
REMARK   86  A    between atoms: _210  and  _211
REMARK   87  A    between atoms: _216  and  _218
REMARK   88  A    between atoms: _218  and  _219
REMARK   89  A    between atoms: _218  and  _221
REMARK   90  A    between atoms: _221  and  _222
REMARK   91  A    between atoms: _222  and  _223
REMARK   92  A    between atoms: _226  and  _228
REMARK   93  A    between atoms: _228  and  _229
REMARK   94  A    between atoms: _228  and  _231
REMARK   95  A    between atoms: _231  and  _232
REMARK   96  A    between atoms: _232  and  _233
REMARK   97  A    between atoms: _236  and  _238
REMARK   98  A    between atoms: _238  and  _239
REMARK   99  A    between atoms: _238  and  _241
REMARK  100  A    between atoms: _241  and  _242
REMARK  101  A    between atoms: _242  and  _243
REMARK  102  A    between atoms: _246  and  _248
REMARK  103  A    between atoms: _248  and  _249
REMARK  104  A    between atoms: _248  and  _251
REMARK  105  A    between atoms: _251  and  _252
REMARK  106  A    between atoms: _254  and  _256
REMARK  107  A    between atoms: _256  and  _257
REMARK  108  A    between atoms: _256  and  _259
REMARK  109  A    between atoms: _259  and  _260
REMARK  110  A    between atoms: _266  and  _268
REMARK  111  A    between atoms: _268  and  _269
REMARK  112  A    between atoms: _268  and  _271
REMARK  113  A    between atoms: _271  and  _272
REMARK  114  A    between atoms: _275  and  _277
REMARK  115  A    between atoms: _277  and  _278
REMARK  116  A    between atoms: _281  and  _283
REMARK  117  A    between atoms: _283  and  _284
REMARK  118  A    between atoms: _283  and  _286
REMARK  119  A    between atoms: _286  and  _287
REMARK  120  A    between atoms: _287  and  _288
REMARK  121  A    between atoms: _291  and  _293
REMARK  122  A    between atoms: _293  and  _294
REMARK  123  A    between atoms: _293  and  _296
REMARK  124  A    between atoms: _296  and  _297
REMARK  125  A    between atoms: _302  and  _303
REMARK  126  A    between atoms: _305  and  _307
REMARK  127  A    between atoms: _307  and  _308
REMARK  128  A    between atoms: _307  and  _310
REMARK  129  A    between atoms: _310  and  _311
REMARK  130  A    between atoms: _316  and  _318
REMARK  131  A    between atoms: _318  and  _319
REMARK  132  A    between atoms: _318  and  _321
REMARK  133  A    between atoms: _321  and  _322
REMARK  134  A    between atoms: _325  and  _327
REMARK  135  A    between atoms: _327  and  _328
REMARK  136  A    between atoms: _327  and  _330
REMARK  137  A    between atoms: _330  and  _331
REMARK  138  A    between atoms: _331  and  _332
REMARK  139  A    between atoms: _335  and  _337
REMARK  140  A    between atoms: _337  and  _338
REMARK                            x       y       z     vdW  Elec       q    Type
REMARK                         _______ _______ _______ _____ _____    ______ ____
ROOT
ATOM      1  O   HOH     1      32.141  32.179 -37.530  0.00  0.00    +0.000 OA
ENDROOT
TORSDOF 0
REMARK  Name = ../refined-set-2016/2ri9/2ri9_pocket.pdb
REMARK  140 active torsions:
REMARK  status: ('A' for Active; 'I' for Inactive)
REMARK    1  A    between atoms: _1  and  _3
REMARK    2  A    between atoms: _3  and  _4
REMARK    3  A    between atoms: _3  and  _6
REMARK    4  A    between atoms: _6  and  _7
REMARK    5  A    between atoms: _7  and  _8
REMARK    6  A    between atoms: _8  and  _9
REMARK    7  A    between atoms: _18  and  _20
REMARK    8  A    between atoms: _20  and  _21
REMARK    9  A    between atoms: _20  and  _23
REMARK   10  A    between atoms: _23  and  _24
REMARK   11  A    between atoms: _27  and  _29
REMARK   12  A    between atoms: _29  and  _30
REMARK   13  A    between atoms: _29  and  _32
REMARK   14  A    between atoms: _32  and  _33
REMARK   15  A    between atoms: _39  and  _41
REMARK   16  A    between atoms: _41  and  _42
REMARK   17  A    between atoms: _41  and  _44
REMARK   18  A    between atoms: _44  and  _45
REMARK   19  A    between atoms: _45  and  _46
REMARK   20  A    between atoms: _49  and  _51
REMARK   21  A    between atoms: _51  and  _52
REMARK   22  A    between atoms: _51  and  _54
REMARK   23  A    between atoms: _54  and  _55
REMARK   24  A    between atoms: _58  and  _60
REMARK   25  A    between atoms: _60  and  _61
REMARK   26  A    between atoms: _60  and  _63
REMARK   27  A    between atoms: _63  and  _64
REMARK   28  A    between atoms: _64  and  _65
REMARK   29  A    between atoms: _65  and  _66
REMARK   30  A    between atoms: _75  and  _77
REMARK   31  A    between atoms: _77  and  _78
REMARK   32  A    between atoms: _81  and  _83
REMARK   33  A    between atoms: _83  and  _84
REMARK   34  A    between atoms: _83  and  _86
REMARK   35  A    between atoms: _86  and  _87
REMARK   36  A    between atoms: _90  and  _92
REMARK   37  A    between atoms: _92  and  _93
REMARK   38  A    between atoms: _95  and  _97
REMARK   39  A    between atoms: _97  and  _98
REMARK   40  A    between atoms: _100  and  _102
REMARK   41  A    between atoms: _102  and  _103
REMARK   42  A    between atoms: _102  and  _105
REMARK   43  A    between atoms: _105  and  _106
REMARK   44  A    between atoms: _109  and  _111
REMARK   45  A    between atoms: _111  and  _112
REMARK   46  A    between atoms: _111  and  _114
REMARK   47  A    between atoms: _114  and  _115
REMARK   48  A    between atoms: _117  and  _119
REMARK   49  A    between atoms: _119  and  _120
REMARK   50  A    between atoms: _119  and  _122
REMARK   51  A    between atoms: _122  and  _123
REMARK   52  A    between atoms: _123  and  _124
REMARK   53  A    between atoms: _127  and  _129
REMARK   54  A    between atoms: _129  and  _130
REMARK   55  A    between atoms: _129  and  _132
REMARK   56  A    between atoms: _132  and  _133
REMARK   57  A    between atoms: _138  and  _139
REMARK   58  A    between atoms: _141  and  _143
REMARK   59  A    between atoms: _143  and  _144
REMARK   60  A    between atoms: _143  and  _146
REMARK   61  A    between atoms: _146  and  _147
REMARK   62  A    between atoms: _147  and  _148
REMARK   63  A    between atoms: _148  and  _149
REMARK   64  A    between atoms: _149  and  _150
REMARK   65  A    between atoms: _154  and  _156
REMARK   66  A    between atoms: _156  and  _157
REMARK   67  A    between atoms: _156  and  _159
REMARK   68  A    between atoms: _159  and  _160
REMARK   69  A    between atoms: _163  and  _165
REMARK   70  A    between atoms: _165  and  _166
REMARK   71  A    between atoms: _165  and  _168
REMARK   72  A    between atoms: _168  and  _169
REMARK   73  A    between atoms: _175  and  _177
REMARK   74  A    between atoms: _177  and  _178
REMARK   75  A    between atoms: _177  and  _180
REMARK   76  A    between atoms: _183  and  _185
REMARK   77  A    between atoms: _185  and  _186
REMARK   78  A    between atoms: _185  and  _188
REMARK   79  A    between atoms: _188  and  _189
REMARK   80  A    between atoms: _192  and  _194
REMARK   81  A    between atoms: _194  and  _195
REMARK   82  A    between atoms: _194  and  _197
REMARK   83  A    between atoms: _197  and  _198
REMARK   84  A    between atoms: _198  and  _199
REMARK   85  A    between atoms: _199  and  _200
REMARK   86  A    between atoms: _210  and  _211
REMARK   87  A    between atoms: _216  and  _218
REMARK   88  A    between atoms: _218  and  _219
REMARK   89  A    between atoms: _218  and  _221
REMARK   90  A    between atoms: _221  and  _222
REMARK   91  A    between atoms: _222  and  _223
REMARK   92  A    between atoms: _226  and  _228
REMARK   93  A    between atoms: _228  and  _229
REMARK   94  A    between atoms: _228  and  _231
REMARK   95  A    between atoms: _231  and  _232
REMARK   96  A    between atoms: _232  and  _233
REMARK   97  A    between atoms: _236  and  _238
REMARK   98  A    between atoms: _238  and  _239
REMARK   99  A    between atoms: _238  and  _241
REMARK  100  A    between atoms: _241  and  _242
REMARK  101  A    between atoms: _242  and  _243
REMARK  102  A    between atoms: _246  and  _248
REMARK  103  A    between atoms: _248  and  _249
REMARK  104  A    between atoms: _248  and  _251
REMARK  105  A    between atoms: _251  and  _252
REMARK  106  A    between atoms: _254  and  _256
REMARK  107  A    between atoms: _256  and  _257
REMARK  108  A    between atoms: _256  and  _259
REMARK  109  A    between atoms: _259  and  _260
REMARK  110  A    between atoms: _266  and  _268
REMARK  111  A    between atoms: _268  and  _269
REMARK  112  A    between atoms: _268  and  _271
REMARK  113  A    between atoms: _271  and  _272
REMARK  114  A    between atoms: _275  and  _277
REMARK  115  A    between atoms: _277  and  _278
REMARK  116  A    between atoms: _281  and  _283
REMARK  117  A    between atoms: _283  and  _284
REMARK  118  A    between atoms: _283  and  _286
REMARK  119  A    between atoms: _286  and  _287
REMARK  120  A    between atoms: _287  and  _288
REMARK  121  A    between atoms: _291  and  _293
REMARK  122  A    between atoms: _293  and  _294
REMARK  123  A    between atoms: _293  and  _296
REMARK  124  A    between atoms: _296  and  _297
REMARK  125  A    between atoms: _302  and  _303
REMARK  126  A    between atoms: _305  and  _307
REMARK  127  A    between atoms: _307  and  _308
REMARK  128  A    between atoms: _307  and  _310
REMARK  129  A    between atoms: _310  and  _311
REMARK  130  A    between atoms: _316  and  _318
REMARK  131  A    between atoms: _318  and  _319
REMARK  132  A    between atoms: _318  and  _321
REMARK  133  A    between atoms: _321  and  _322
REMARK  134  A    between atoms: _325  and  _327
REMARK  135  A    between atoms: _327  and  _328
REMARK  136  A    between atoms: _327  and  _330
REMARK  137  A    between atoms: _330  and  _331
REMARK  138  A    between atoms: _331  and  _332
REMARK  139  A    between atoms: _335  and  _337
REMARK  140  A    between atoms: _337  and  _338
REMARK                            x       y       z     vdW  Elec       q    Type
REMARK                         _______ _______ _______ _____ _____    ______ ____
ROOT
ATOM      1  O   HOH     1      33.073  29.192 -37.959  0.00  0.00    +0.000 OA
ENDROOT
TORSDOF 0
