REMARK  Name = ../refined-set-2016/3fuc/3fuc_pocket.pdb
REMARK  212 active torsions:
REMARK  status: ('A' for Active; 'I' for Inactive)
REMARK    1  A    between atoms: _1  and  _3
REMARK    2  A    between atoms: _3  and  _4
REMARK    3  A    between atoms: _3  and  _6
REMARK    4  A    between atoms: _6  and  _7
REMARK    5  A    between atoms: _10  and  _12
REMARK    6  A    between atoms: _12  and  _13
REMARK    7  A    between atoms: _12  and  _15
REMARK    8  A    between atoms: _17  and  _19
REMARK    9  A    between atoms: _19  and  _20
REMARK   10  A    between atoms: _22  and  _24
REMARK   11  A    between atoms: _24  and  _25
REMARK   12  A    between atoms: _24  and  _27
REMARK   13  A    between atoms: _27  and  _28
REMARK   14  A    between atoms: _30  and  _32
REMARK   15  A    between atoms: _32  and  _33
REMARK   16  A    between atoms: _35  and  _37
REMARK   17  A    between atoms: _37  and  _38
REMARK   18  A    between atoms: _37  and  _40
REMARK   19  A    between atoms: _40  and  _41
REMARK   20  A    between atoms: _44  and  _46
REMARK   21  A    between atoms: _46  and  _47
REMARK   22  A    between atoms: _49  and  _51
REMARK   23  A    between atoms: _51  and  _52
REMARK   24  A    between atoms: _54  and  _56
REMARK   25  A    between atoms: _56  and  _57
REMARK   26  A    between atoms: _56  and  _59
REMARK   27  A    between atoms: _59  and  _60
REMARK   28  A    between atoms: _60  and  _61
REMARK   29  A    between atoms: _61  and  _62
REMARK   30  A    between atoms: _71  and  _73
REMARK   31  A    between atoms: _73  and  _74
REMARK   32  A    between atoms: _73  and  _76
REMARK   33  A    between atoms: _76  and  _77
REMARK   34  A    between atoms: _83  and  _85
REMARK   35  A    between atoms: _85  and  _86
REMARK   36  A    between atoms: _85  and  _88
REMARK   37  A    between atoms: _88  and  _89
REMARK   38  A    between atoms: _94  and  _96
REMARK   39  A    between atoms: _96  and  _97
REMARK   40  A    between atoms: _96  and  _99
REMARK   41  A    between atoms: _99  and  _100
REMARK   42  A    between atoms: _100  and  _101
REMARK   43  A    between atoms: _103  and  _105
REMARK   44  A    between atoms: _105  and  _106
REMARK   45  A    between atoms: _105  and  _108
REMARK   46  A    between atoms: _108  and  _109
REMARK   47  A    between atoms: _114  and  _115
REMARK   48  A    between atoms: _117  and  _119
REMARK   49  A    between atoms: _119  and  _120
REMARK   50  A    between atoms: _119  and  _122
REMARK   51  A    between atoms: _122  and  _123
REMARK   52  A    between atoms: _123  and  _124
REMARK   53  A    between atoms: _127  and  _129
REMARK   54  A    between atoms: _129  and  _130
REMARK   55  A    between atoms: _129  and  _132
REMARK   56  A    between atoms: _132  and  _133
REMARK   57  A    between atoms: _136  and  _138
REMARK   58  A    between atoms: _138  and  _139
REMARK   59  A    between atoms: _138  and  _141
REMARK   60  A    between atoms: _141  and  _142
REMARK   61  A    between atoms: _147  and  _149
REMARK   62  A    between atoms: _149  and  _150
REMARK   63  A    between atoms: _153  and  _155
REMARK   64  A    between atoms: _155  and  _156
REMARK   65  A    between atoms: _159  and  _161
REMARK   66  A    between atoms: _161  and  _162
REMARK   67  A    between atoms: _164  and  _166
REMARK   68  A    between atoms: _166  and  _167
REMARK   69  A    between atoms: _169  and  _171
REMARK   70  A    between atoms: _171  and  _172
REMARK   71  A    between atoms: _171  and  _174
REMARK   72  A    between atoms: _174  and  _175
REMARK   73  A    between atoms: _178  and  _180
REMARK   74  A    between atoms: _180  and  _181
REMARK   75  A    between atoms: _180  and  _183
REMARK   76  A    between atoms: _183  and  _184
REMARK   77  A    between atoms: _189  and  _190
REMARK   78  A    between atoms: _192  and  _194
REMARK   79  A    between atoms: _194  and  _195
REMARK   80  A    between atoms: _194  and  _197
REMARK   81  A    between atoms: _200  and  _202
REMARK   82  A    between atoms: _202  and  _203
REMARK   83  A    between atoms: _202  and  _205
REMARK   84  A    between atoms: _205  and  _206
REMARK   85  A    between atoms: _206  and  _207
REMARK   86  A    between atoms: _209  and  _211
REMARK   87  A    between atoms: _211  and  _212
REMARK   88  A    between atoms: _211  and  _214
REMARK   89  A    between atoms: _214  and  _215
REMARK   90  A    between atoms: _218  and  _220
REMARK   91  A    between atoms: _220  and  _221
REMARK   92  A    between atoms: _223  and  _225
REMARK   93  A    between atoms: _225  and  _226
REMARK   94  A    between atoms: _229  and  _230
REMARK   95  A    between atoms: _235  and  _237
REMARK   96  A    between atoms: _237  and  _238
REMARK   97  A    between atoms: _237  and  _240
REMARK   98  A    between atoms: _240  and  _241
REMARK   99  A    between atoms: _246  and  _248
REMARK  100  A    between atoms: _248  and  _249
REMARK  101  A    between atoms: _248  and  _251
REMARK  102  A    between atoms: _251  and  _252
REMARK  103  A    between atoms: _258  and  _260
REMARK  104  A    between atoms: _260  and  _261
REMARK  105  A    between atoms: _260  and  _263
REMARK  106  A    between atoms: _263  and  _264
REMARK  107  A    between atoms: _264  and  _265
REMARK  108  A    between atoms: _268  and  _270
REMARK  109  A    between atoms: _270  and  _271
REMARK  110  A    between atoms: _270  and  _273
REMARK  111  A    between atoms: _275  and  _277
REMARK  112  A    between atoms: _277  and  _278
REMARK  113  A    between atoms: _277  and  _280
REMARK  114  A    between atoms: _280  and  _281
REMARK  115  A    between atoms: _284  and  _286
REMARK  116  A    between atoms: _286  and  _287
REMARK  117  A    between atoms: _290  and  _292
REMARK  118  A    between atoms: _292  and  _293
REMARK  119  A    between atoms: _292  and  _295
REMARK  120  A    between atoms: _298  and  _300
REMARK  121  A    between atoms: _300  and  _301
REMARK  122  A    between atoms: _303  and  _305
REMARK  123  A    between atoms: _305  and  _306
REMARK  124  A    between atoms: _305  and  _308
REMARK  125  A    between atoms: _308  and  _309
REMARK  126  A    between atoms: _309  and  _310
REMARK  127  A    between atoms: _312  and  _314
REMARK  128  A    between atoms: _314  and  _315
REMARK  129  A    between atoms: _314  and  _317
REMARK  130  A    between atoms: _317  and  _318
REMARK  131  A    between atoms: _320  and  _322
REMARK  132  A    between atoms: _322  and  _323
REMARK  133  A    between atoms: _322  and  _325
REMARK  134  A    between atoms: _325  and  _326
REMARK  135  A    between atoms: _329  and  _331
REMARK  136  A    between atoms: _331  and  _332
REMARK  137  A    between atoms: _331  and  _334
REMARK  138  A    between atoms: _337  and  _339
REMARK  139  A    between atoms: _339  and  _340
REMARK  140  A    between atoms: _339  and  _342
REMARK  141  A    between atoms: _342  and  _343
REMARK  142  A    between atoms: _343  and  _344
REMARK  143  A    between atoms: _347  and  _349
REMARK  144  A    between atoms: _349  and  _350
REMARK  145  A    between atoms: _349  and  _352
REMARK  146  A    between atoms: _352  and  _353
REMARK  147  A    between atoms: _359  and  _361
REMARK  148  A    between atoms: _361  and  _362
REMARK  149  A    between atoms: _361  and  _364
REMARK  150  A    between atoms: _364  and  _365
REMARK  151  A    between atoms: _367  and  _369
REMARK  152  A    between atoms: _369  and  _370
REMARK  153  A    between atoms: _369  and  _372
REMARK  154  A    between atoms: _372  and  _373
REMARK  155  A    between atoms: _376  and  _378
REMARK  156  A    between atoms: _378  and  _379
REMARK  157  A    between atoms: _378  and  _381
REMARK  158  A    between atoms: _381  and  _382
REMARK  159  A    between atoms: _385  and  _387
REMARK  160  A    between atoms: _387  and  _388
REMARK  161  A    between atoms: _387  and  _390
REMARK  162  A    between atoms: _390  and  _391
REMARK  163  A    between atoms: _394  and  _396
REMARK  164  A    between atoms: _396  and  _397
REMARK  165  A    between atoms: _396  and  _399
REMARK  166  A    between atoms: _399  and  _400
REMARK  167  A    between atoms: _405  and  _407
REMARK  168  A    between atoms: _407  and  _408
REMARK  169  A    between atoms: _407  and  _410
REMARK  170  A    between atoms: _410  and  _411
REMARK  171  A    between atoms: _411  and  _412
REMARK  172  A    between atoms: _412  and  _413
REMARK  173  A    between atoms: _413  and  _414
REMARK  174  A    between atoms: _418  and  _420
REMARK  175  A    between atoms: _420  and  _421
REMARK  176  A    between atoms: _420  and  _423
REMARK  177  A    between atoms: _426  and  _428
REMARK  178  A    between atoms: _428  and  _429
REMARK  179  A    between atoms: _428  and  _431
REMARK  180  A    between atoms: _431  and  _432
REMARK  181  A    between atoms: _435  and  _437
REMARK  182  A    between atoms: _437  and  _438
REMARK  183  A    between atoms: _441  and  _443
REMARK  184  A    between atoms: _443  and  _444
REMARK  185  A    between atoms: _443  and  _446
REMARK  186  A    between atoms: _446  and  _447
REMARK  187  A    between atoms: _452  and  _454
REMARK  188  A    between atoms: _454  and  _455
REMARK  189  A    between atoms: _454  and  _457
REMARK  190  A    between atoms: _457  and  _458
REMARK  191  A    between atoms: _463  and  _465
REMARK  192  A    between atoms: _465  and  _466
REMARK  193  A    between atoms: _465  and  _468
REMARK  194  A    between atoms: _468  and  _469
REMARK  195  A    between atoms: _469  and  _470
REMARK  196  A    between atoms: _473  and  _475
REMARK  197  A    between atoms: _475  and  _476
REMARK  198  A    between atoms: _475  and  _478
REMARK  199  A    between atoms: _481  and  _483
REMARK  200  A    between atoms: _483  and  _484
REMARK  201  A    between atoms: _483  and  _486
REMARK  202  A    between atoms: _486  and  _487
REMARK  203  A    between atoms: _490  and  _492
REMARK  204  A    between atoms: _492  and  _493
REMARK  205  A    between atoms: _492  and  _495
REMARK  206  A    between atoms: _495  and  _496
REMARK  207  A    between atoms: _496  and  _497
REMARK  208  A    between atoms: _497  and  _498
REMARK  209  A    between atoms: _507  and  _509
REMARK  210  A    between atoms: _509  and  _510
REMARK  211  A    between atoms: _509  and  _512
REMARK  212  A    between atoms: _512  and  _513
REMARK                            x       y       z     vdW  Elec       q    Type
REMARK                         _______ _______ _______ _____ _____    ______ ____
ROOT
ATOM      1  CA  SER A   4      35.332 -17.052  25.283  0.00  0.00    +0.178 C 
ENDROOT
BRANCH   1   3
ATOM      2  C   GLY A   3      33.502 -18.526  24.541  0.00  0.00    +0.243 C 
ATOM      3  N   SER A   4      33.925 -17.338  24.951  0.00  0.00    -0.295 N 
ATOM      4  H   SER A   4      33.229 -16.570  25.043  0.00  0.00    +0.150 HD
ATOM      5  O   GLY A   3      34.244 -19.541  24.465  0.00  0.00    -0.273 OA
BRANCH   2   6
ATOM      6  CA  GLY A   3      32.042 -18.599  24.151  0.00  0.00    +0.176 C 
BRANCH   6   8
ATOM      7  C   CYS A   2      31.802 -20.515  22.722  0.00  0.00    +0.242 C 
ATOM      8  N   GLY A   3      31.629 -19.963  23.914  0.00  0.00    -0.295 N 
ATOM      9  H   GLY A   3      31.194 -20.514  24.682  0.00  0.00    +0.150 HD
ATOM     10  O   CYS A   2      32.201 -19.889  21.756  0.00  0.00    -0.273 OA
BRANCH   7  11
ATOM     11  CA  CYS A   2      31.488 -21.981  22.616  0.00  0.00    +0.160 C 
BRANCH  11  14
ATOM     12  C   ILE A   1      29.072 -22.145  22.374  0.00  0.00    +0.238 C 
ATOM     13  O   ILE A   1      28.876 -21.764  23.530  0.00  0.00    -0.274 OA
ATOM     14  N   CYS A   2      30.279 -22.250  21.845  0.00  0.00    -0.297 N 
ATOM     15  H   CYS A   2      30.369 -22.533  20.848  0.00  0.00    +0.150 HD
BRANCH  12  16
ATOM     16  CA  ILE A   1      27.914 -22.593  21.471  0.00  0.00    +0.145 C 
BRANCH  16  17
ATOM     17  CB  ILE A   1      26.794 -21.497  21.330  0.00  0.00    +0.025 C 
ATOM     18  CG2 ILE A   1      27.415 -20.195  20.825  0.00  0.00    +0.002 C 
BRANCH  17  19
ATOM     19  CG1 ILE A   1      25.664 -22.027  20.429  0.00  0.00    +0.002 C 
ATOM     20  CD1 ILE A   1      24.491 -21.033  20.231  0.00  0.00    +0.000 C 
ENDBRANCH  17  19
ENDBRANCH  16  17
BRANCH  16  21
ATOM     21  N   ILE A   1      27.433 -23.844  22.031  0.00  0.00    -0.238 NA
ATOM     22  H   ILE A   1      26.798 -23.821  22.855  0.00  0.00    +0.142 HD
ENDBRANCH  16  21
ENDBRANCH  12  16
ENDBRANCH  11  14
BRANCH  11  23
ATOM     23  CB  CYS A   2      32.690 -22.738  22.016  0.00  0.00    +0.098 C 
ATOM     24  SG  CYS A   2      32.452 -24.526  21.945  0.00  0.00    -0.080 S 
ENDBRANCH  11  23
ENDBRANCH   7  11
ENDBRANCH   6   8
ENDBRANCH   2   6
ENDBRANCH   1   3
BRANCH   1  25
ATOM     25  C   SER A   4      35.848 -18.025  26.310  0.00  0.00    +0.243 C 
ATOM     26  O   SER A   4      35.205 -18.259  27.329  0.00  0.00    -0.273 OA
ATOM     27  N   GLY A   5      37.015 -18.604  26.039  0.00  0.00    -0.295 N 
ATOM     28  H   GLY A   5      37.530 -18.328  25.179  0.00  0.00    +0.150 HD
BRANCH  27  29
ATOM     29  CA  GLY A   5      37.590 -19.615  26.916  0.00  0.00    +0.176 C 
BRANCH  29  30
ATOM     30  C   GLY A   5      37.273 -21.037  26.495  0.00  0.00    +0.243 C 
ATOM     31  O   GLY A   5      37.931 -21.975  26.945  0.00  0.00    -0.273 OA
ATOM     32  N   LEU A   6      36.249 -21.210  25.658  0.00  0.00    -0.297 N 
ATOM     33  H   LEU A   6      35.751 -20.377  25.283  0.00  0.00    +0.150 HD
BRANCH  32  34
ATOM     34  CA  LEU A   6      35.813 -22.542  25.258  0.00  0.00    +0.149 C 
BRANCH  34  35
ATOM     35  C   LEU A   6      36.086 -22.818  23.761  0.00  0.00    +0.241 C 
ATOM     36  O   LEU A   6      35.714 -23.875  23.247  0.00  0.00    -0.273 OA
ATOM     37  N   GLY A   7      36.782 -21.900  23.093  0.00  0.00    -0.296 N 
ATOM     38  H   GLY A   7      37.135 -21.063  23.599  0.00  0.00    +0.150 HD
BRANCH  37  39
ATOM     39  CA  GLY A   7      37.063 -22.042  21.657  0.00  0.00    +0.163 C 
BRANCH  39  40
ATOM     40  C   GLY A   7      37.809 -23.329  21.316  0.00  0.00    +0.229 C 
ATOM     41  O   GLY A   7      37.601 -23.927  20.252  0.00  0.00    -0.286 OA
ENDBRANCH  39  40
ENDBRANCH  37  39
ENDBRANCH  34  35
BRANCH  34  42
ATOM     42  CB  LEU A   6      34.340 -22.760  25.649  0.00  0.00    +0.029 C 
BRANCH  42  43
ATOM     43  CG  LEU A   6      33.851 -24.197  25.839  0.00  0.00    +0.002 C 
ATOM     44  CD2 LEU A   6      34.622 -24.952  26.969  0.00  0.00    +0.000 C 
ATOM     45  CD1 LEU A   6      32.333 -24.267  26.043  0.00  0.00    +0.000 C 
ENDBRANCH  42  43
ENDBRANCH  34  42
ENDBRANCH  32  34
ENDBRANCH  29  30
ENDBRANCH  27  29
ENDBRANCH   1  25
BRANCH   1  46
ATOM     46  CB  SER A   4      35.457 -15.639  25.843  0.00  0.00    +0.166 C 
BRANCH  46  47
ATOM     47  OG  SER A   4      35.034 -14.693  24.892  0.00  0.00    -0.380 OA
ATOM     48  H   SER A   4      34.088 -14.864  24.657  0.00  0.00    +0.211 HD
ENDBRANCH  46  47
ENDBRANCH   1  46
TORSDOF 21
REMARK  Name = ../refined-set-2016/3fuc/3fuc_pocket.pdb
REMARK  212 active torsions:
REMARK  status: ('A' for Active; 'I' for Inactive)
REMARK    1  A    between atoms: _1  and  _3
REMARK    2  A    between atoms: _3  and  _4
REMARK    3  A    between atoms: _3  and  _6
REMARK    4  A    between atoms: _6  and  _7
REMARK    5  A    between atoms: _10  and  _12
REMARK    6  A    between atoms: _12  and  _13
REMARK    7  A    between atoms: _12  and  _15
REMARK    8  A    between atoms: _17  and  _19
REMARK    9  A    between atoms: _19  and  _20
REMARK   10  A    between atoms: _22  and  _24
REMARK   11  A    between atoms: _24  and  _25
REMARK   12  A    between atoms: _24  and  _27
REMARK   13  A    between atoms: _27  and  _28
REMARK   14  A    between atoms: _30  and  _32
REMARK   15  A    between atoms: _32  and  _33
REMARK   16  A    between atoms: _35  and  _37
REMARK   17  A    between atoms: _37  and  _38
REMARK   18  A    between atoms: _37  and  _40
REMARK   19  A    between atoms: _40  and  _41
REMARK   20  A    between atoms: _44  and  _46
REMARK   21  A    between atoms: _46  and  _47
REMARK   22  A    between atoms: _49  and  _51
REMARK   23  A    between atoms: _51  and  _52
REMARK   24  A    between atoms: _54  and  _56
REMARK   25  A    between atoms: _56  and  _57
REMARK   26  A    between atoms: _56  and  _59
REMARK   27  A    between atoms: _59  and  _60
REMARK   28  A    between atoms: _60  and  _61
REMARK   29  A    between atoms: _61  and  _62
REMARK   30  A    between atoms: _71  and  _73
REMARK   31  A    between atoms: _73  and  _74
REMARK   32  A    between atoms: _73  and  _76
REMARK   33  A    between atoms: _76  and  _77
REMARK   34  A    between atoms: _83  and  _85
REMARK   35  A    between atoms: _85  and  _86
REMARK   36  A    between atoms: _85  and  _88
REMARK   37  A    between atoms: _88  and  _89
REMARK   38  A    between atoms: _94  and  _96
REMARK   39  A    between atoms: _96  and  _97
REMARK   40  A    between atoms: _96  and  _99
REMARK   41  A    between atoms: _99  and  _100
REMARK   42  A    between atoms: _100  and  _101
REMARK   43  A    between atoms: _103  and  _105
REMARK   44  A    between atoms: _105  and  _106
REMARK   45  A    between atoms: _105  and  _108
REMARK   46  A    between atoms: _108  and  _109
REMARK   47  A    between atoms: _114  and  _115
REMARK   48  A    between atoms: _117  and  _119
REMARK   49  A    between atoms: _119  and  _120
REMARK   50  A    between atoms: _119  and  _122
REMARK   51  A    between atoms: _122  and  _123
REMARK   52  A    between atoms: _123  and  _124
REMARK   53  A    between atoms: _127  and  _129
REMARK   54  A    between atoms: _129  and  _130
REMARK   55  A    between atoms: _129  and  _132
REMARK   56  A    between atoms: _132  and  _133
REMARK   57  A    between atoms: _136  and  _138
REMARK   58  A    between atoms: _138  and  _139
REMARK   59  A    between atoms: _138  and  _141
REMARK   60  A    between atoms: _141  and  _142
REMARK   61  A    between atoms: _147  and  _149
REMARK   62  A    between atoms: _149  and  _150
REMARK   63  A    between atoms: _153  and  _155
REMARK   64  A    between atoms: _155  and  _156
REMARK   65  A    between atoms: _159  and  _161
REMARK   66  A    between atoms: _161  and  _162
REMARK   67  A    between atoms: _164  and  _166
REMARK   68  A    between atoms: _166  and  _167
REMARK   69  A    between atoms: _169  and  _171
REMARK   70  A    between atoms: _171  and  _172
REMARK   71  A    between atoms: _171  and  _174
REMARK   72  A    between atoms: _174  and  _175
REMARK   73  A    between atoms: _178  and  _180
REMARK   74  A    between atoms: _180  and  _181
REMARK   75  A    between atoms: _180  and  _183
REMARK   76  A    between atoms: _183  and  _184
REMARK   77  A    between atoms: _189  and  _190
REMARK   78  A    between atoms: _192  and  _194
REMARK   79  A    between atoms: _194  and  _195
REMARK   80  A    between atoms: _194  and  _197
REMARK   81  A    between atoms: _200  and  _202
REMARK   82  A    between atoms: _202  and  _203
REMARK   83  A    between atoms: _202  and  _205
REMARK   84  A    between atoms: _205  and  _206
REMARK   85  A    between atoms: _206  and  _207
REMARK   86  A    between atoms: _209  and  _211
REMARK   87  A    between atoms: _211  and  _212
REMARK   88  A    between atoms: _211  and  _214
REMARK   89  A    between atoms: _214  and  _215
REMARK   90  A    between atoms: _218  and  _220
REMARK   91  A    between atoms: _220  and  _221
REMARK   92  A    between atoms: _223  and  _225
REMARK   93  A    between atoms: _225  and  _226
REMARK   94  A    between atoms: _229  and  _230
REMARK   95  A    between atoms: _235  and  _237
REMARK   96  A    between atoms: _237  and  _238
REMARK   97  A    between atoms: _237  and  _240
REMARK   98  A    between atoms: _240  and  _241
REMARK   99  A    between atoms: _246  and  _248
REMARK  100  A    between atoms: _248  and  _249
REMARK  101  A    between atoms: _248  and  _251
REMARK  102  A    between atoms: _251  and  _252
REMARK  103  A    between atoms: _258  and  _260
REMARK  104  A    between atoms: _260  and  _261
REMARK  105  A    between atoms: _260  and  _263
REMARK  106  A    between atoms: _263  and  _264
REMARK  107  A    between atoms: _264  and  _265
REMARK  108  A    between atoms: _268  and  _270
REMARK  109  A    between atoms: _270  and  _271
REMARK  110  A    between atoms: _270  and  _273
REMARK  111  A    between atoms: _275  and  _277
REMARK  112  A    between atoms: _277  and  _278
REMARK  113  A    between atoms: _277  and  _280
REMARK  114  A    between atoms: _280  and  _281
REMARK  115  A    between atoms: _284  and  _286
REMARK  116  A    between atoms: _286  and  _287
REMARK  117  A    between atoms: _290  and  _292
REMARK  118  A    between atoms: _292  and  _293
REMARK  119  A    between atoms: _292  and  _295
REMARK  120  A    between atoms: _298  and  _300
REMARK  121  A    between atoms: _300  and  _301
REMARK  122  A    between atoms: _303  and  _305
REMARK  123  A    between atoms: _305  and  _306
REMARK  124  A    between atoms: _305  and  _308
REMARK  125  A    between atoms: _308  and  _309
REMARK  126  A    between atoms: _309  and  _310
REMARK  127  A    between atoms: _312  and  _314
REMARK  128  A    between atoms: _314  and  _315
REMARK  129  A    between atoms: _314  and  _317
REMARK  130  A    between atoms: _317  and  _318
REMARK  131  A    between atoms: _320  and  _322
REMARK  132  A    between atoms: _322  and  _323
REMARK  133  A    between atoms: _322  and  _325
REMARK  134  A    between atoms: _325  and  _326
REMARK  135  A    between atoms: _329  and  _331
REMARK  136  A    between atoms: _331  and  _332
REMARK  137  A    between atoms: _331  and  _334
REMARK  138  A    between atoms: _337  and  _339
REMARK  139  A    between atoms: _339  and  _340
REMARK  140  A    between atoms: _339  and  _342
REMARK  141  A    between atoms: _342  and  _343
REMARK  142  A    between atoms: _343  and  _344
REMARK  143  A    between atoms: _347  and  _349
REMARK  144  A    between atoms: _349  and  _350
REMARK  145  A    between atoms: _349  and  _352
REMARK  146  A    between atoms: _352  and  _353
REMARK  147  A    between atoms: _359  and  _361
REMARK  148  A    between atoms: _361  and  _362
REMARK  149  A    between atoms: _361  and  _364
REMARK  150  A    between atoms: _364  and  _365
REMARK  151  A    between atoms: _367  and  _369
REMARK  152  A    between atoms: _369  and  _370
REMARK  153  A    between atoms: _369  and  _372
REMARK  154  A    between atoms: _372  and  _373
REMARK  155  A    between atoms: _376  and  _378
REMARK  156  A    between atoms: _378  and  _379
REMARK  157  A    between atoms: _378  and  _381
REMARK  158  A    between atoms: _381  and  _382
REMARK  159  A    between atoms: _385  and  _387
REMARK  160  A    between atoms: _387  and  _388
REMARK  161  A    between atoms: _387  and  _390
REMARK  162  A    between atoms: _390  and  _391
REMARK  163  A    between atoms: _394  and  _396
REMARK  164  A    between atoms: _396  and  _397
REMARK  165  A    between atoms: _396  and  _399
REMARK  166  A    between atoms: _399  and  _400
REMARK  167  A    between atoms: _405  and  _407
REMARK  168  A    between atoms: _407  and  _408
REMARK  169  A    between atoms: _407  and  _410
REMARK  170  A    between atoms: _410  and  _411
REMARK  171  A    between atoms: _411  and  _412
REMARK  172  A    between atoms: _412  and  _413
REMARK  173  A    between atoms: _413  and  _414
REMARK  174  A    between atoms: _418  and  _420
REMARK  175  A    between atoms: _420  and  _421
REMARK  176  A    between atoms: _420  and  _423
REMARK  177  A    between atoms: _426  and  _428
REMARK  178  A    between atoms: _428  and  _429
REMARK  179  A    between atoms: _428  and  _431
REMARK  180  A    between atoms: _431  and  _432
REMARK  181  A    between atoms: _435  and  _437
REMARK  182  A    between atoms: _437  and  _438
REMARK  183  A    between atoms: _441  and  _443
REMARK  184  A    between atoms: _443  and  _444
REMARK  185  A    between atoms: _443  and  _446
REMARK  186  A    between atoms: _446  and  _447
REMARK  187  A    between atoms: _452  and  _454
REMARK  188  A    between atoms: _454  and  _455
REMARK  189  A    between atoms: _454  and  _457
REMARK  190  A    between atoms: _457  and  _458
REMARK  191  A    between atoms: _463  and  _465
REMARK  192  A    between atoms: _465  and  _466
REMARK  193  A    between atoms: _465  and  _468
REMARK  194  A    between atoms: _468  and  _469
REMARK  195  A    between atoms: _469  and  _470
REMARK  196  A    between atoms: _473  and  _475
REMARK  197  A    between atoms: _475  and  _476
REMARK  198  A    between atoms: _475  and  _478
REMARK  199  A    between atoms: _481  and  _483
REMARK  200  A    between atoms: _483  and  _484
REMARK  201  A    between atoms: _483  and  _486
REMARK  202  A    between atoms: _486  and  _487
REMARK  203  A    between atoms: _490  and  _492
REMARK  204  A    between atoms: _492  and  _493
REMARK  205  A    between atoms: _492  and  _495
REMARK  206  A    between atoms: _495  and  _496
REMARK  207  A    between atoms: _496  and  _497
REMARK  208  A    between atoms: _497  and  _498
REMARK  209  A    between atoms: _507  and  _509
REMARK  210  A    between atoms: _509  and  _510
REMARK  211  A    between atoms: _509  and  _512
REMARK  212  A    between atoms: _512  and  _513
REMARK                            x       y       z     vdW  Elec       q    Type
REMARK                         _______ _______ _______ _____ _____    ______ ____
ROOT
ATOM      1  CA  HIS A   4      27.395 -10.782  18.188  0.00  0.00    +0.155 C 
ENDROOT
BRANCH   1   4
ATOM      2  C   PHE A   3      27.344 -13.066  17.313  0.00  0.00    +0.241 C 
ATOM      3  O   PHE A   3      26.730 -13.500  18.306  0.00  0.00    -0.273 OA
ATOM      4  N   HIS A   4      27.703 -11.789  17.161  0.00  0.00    -0.297 N 
ATOM      5  H   HIS A   4      28.210 -11.501  16.300  0.00  0.00    +0.150 HD
BRANCH   2   6
ATOM      6  CA  PHE A   3      27.808 -14.034  16.224  0.00  0.00    +0.153 C 
BRANCH   6   8
ATOM      7  C   ARG A   2      29.365 -15.749  16.966  0.00  0.00    +0.241 C 
ATOM      8  N   PHE A   3      28.104 -15.342  16.821  0.00  0.00    -0.297 N 
ATOM      9  H   PHE A   3      27.324 -15.955  17.133  0.00  0.00    +0.150 HD
ATOM     10  O   ARG A   2      30.328 -15.054  16.664  0.00  0.00    -0.273 OA
BRANCH   7  11
ATOM     11  CA  ARG A   2      29.573 -17.144  17.521  0.00  0.00    +0.149 C 
BRANCH  11  13
ATOM     12  C   GLY A   1      31.478 -18.571  17.079  0.00  0.00    +0.240 C 
ATOM     13  N   ARG A   2      31.012 -17.429  17.571  0.00  0.00    -0.297 N 
ATOM     14  H   ARG A   2      31.666 -16.738  17.991  0.00  0.00    +0.150 HD
ATOM     15  O   GLY A   1      30.736 -19.438  16.629  0.00  0.00    -0.274 OA
BRANCH  12  16
ATOM     16  CA  GLY A   1      32.987 -18.757  17.103  0.00  0.00    +0.169 C 
BRANCH  16  17
ATOM     17  N   GLY A   1      33.277 -20.127  17.507  0.00  0.00    -0.236 NA
ATOM     18  H   GLY A   1      33.282 -20.363  18.520  0.00  0.00    +0.142 HD
ENDBRANCH  16  17
ENDBRANCH  12  16
ENDBRANCH  11  13
BRANCH  11  19
ATOM     19  CB  ARG A   2      28.939 -17.290  18.917  0.00  0.00    +0.033 C 
BRANCH  19  20
ATOM     20  CG  ARG A   2      29.478 -16.303  19.966  0.00  0.00    +0.045 C 
BRANCH  20  21
ATOM     21  CD  ARG A   2      28.397 -15.561  20.727  0.00  0.00    +0.174 C 
BRANCH  21  22
ATOM     22  NE  ARG A   2      27.533 -16.439  21.508  0.00  0.00    -0.265 N 
ATOM     23  CZ  ARG A   2      27.865 -16.990  22.680  0.00  0.00    +0.342 C 
ATOM     24  NH2 ARG A   2      27.003 -17.769  23.319  0.00  0.00    -0.292 N 
ATOM     25 HH21 ARG A   2      27.265 -18.196  24.231  0.00  0.00    +0.255 HD
ATOM     26 HH22 ARG A   2      26.065 -17.953  22.909  0.00  0.00    +0.255 HD
ATOM     27  NH1 ARG A   2      29.073 -16.803  23.213  0.00  0.00    -0.292 N 
ATOM     28 HH11 ARG A   2      29.312 -17.240  24.126  0.00  0.00    +0.255 HD
ATOM     29 HH12 ARG A   2      29.776 -16.220  22.716  0.00  0.00    +0.255 HD
ATOM     30  HE  ARG A   2      26.590 -16.652  21.125  0.00  0.00    +0.259 HD
ENDBRANCH  21  22
ENDBRANCH  20  21
ENDBRANCH  19  20
ENDBRANCH  11  19
ENDBRANCH   7  11
ENDBRANCH   6   8
BRANCH   6  31
ATOM     31  CB  PHE A   3      26.755 -14.180  15.122  0.00  0.00    +0.055 C 
BRANCH  31  32
ATOM     32  CG  PHE A   3      27.109 -15.234  14.097  0.00  0.00    -0.020 A 
ATOM     33  CD2 PHE A   3      26.325 -16.379  13.966  0.00  0.00    -0.004 A 
ATOM     34  CE2 PHE A   3      26.660 -17.379  13.034  0.00  0.00    -0.000 A 
ATOM     35  CZ  PHE A   3      27.782 -17.208  12.232  0.00  0.00    -0.000 A 
ATOM     36  CE1 PHE A   3      28.575 -16.084  12.358  0.00  0.00    -0.000 A 
ATOM     37  CD1 PHE A   3      28.236 -15.086  13.292  0.00  0.00    -0.004 A 
ENDBRANCH  31  32
ENDBRANCH   6  31
ENDBRANCH   2   6
ENDBRANCH   1   4
BRANCH   1  38
ATOM     38  C   HIS A   4      26.701  -9.558  17.627  0.00  0.00    +0.241 C 
ATOM     39  N   MET A   5      25.757  -9.036  18.400  0.00  0.00    -0.297 N 
ATOM     40  H   MET A   5      25.449  -9.545  19.253  0.00  0.00    +0.150 HD
ATOM     41  O   HIS A   4      27.032  -9.066  16.542  0.00  0.00    -0.273 OA
BRANCH  39  42
ATOM     42  CA  MET A   5      25.149  -7.755  18.063  0.00  0.00    +0.149 C 
BRANCH  42  43
ATOM     43  C   MET A   5      26.222  -6.667  17.829  0.00  0.00    +0.241 C 
ATOM     44  N   TYR A   6      27.277  -6.615  18.665  0.00  0.00    -0.297 N 
ATOM     45  H   TYR A   6      27.388  -7.335  19.407  0.00  0.00    +0.150 HD
ATOM     46  O   MET A   5      26.090  -5.878  16.880  0.00  0.00    -0.273 OA
BRANCH  44  47
ATOM     47  CA  TYR A   6      28.267  -5.545  18.530  0.00  0.00    +0.153 C 
BRANCH  47  48
ATOM     48  C   TYR A   6      29.033  -5.604  17.216  0.00  0.00    +0.241 C 
ATOM     49  O   TYR A   6      29.601  -4.605  16.823  0.00  0.00    -0.273 OA
ATOM     50  N   GLU A   7      29.067  -6.762  16.564  0.00  0.00    -0.298 N 
ATOM     51  H   GLU A   7      28.612  -7.603  16.974  0.00  0.00    +0.150 HD
BRANCH  50  52
ATOM     52  CA  GLU A   7      29.749  -6.856  15.259  0.00  0.00    +0.137 C 
BRANCH  52  53
ATOM     53  C   GLU A   7      28.810  -6.464  14.093  0.00  0.00    +0.227 C 
ATOM     54  O   GLU A   7      29.194  -6.516  12.916  0.00  0.00    -0.286 OA
ENDBRANCH  52  53
BRANCH  52  55
ATOM     55  CB  GLU A   7      30.394  -8.238  15.054  0.00  0.00    +0.039 C 
BRANCH  55  56
ATOM     56  CG  GLU A   7      31.629  -8.528  15.910  0.00  0.00    +0.116 C 
BRANCH  56  57
ATOM     57  CD  GLU A   7      32.942  -7.887  15.422  0.00  0.00    +0.365 C 
ATOM     58  OE2 GLU A   7      33.941  -7.919  16.181  0.00  0.00    -0.246 OA
ATOM     59  OE1 GLU A   7      33.009  -7.359  14.286  0.00  0.00    -0.246 OA
ENDBRANCH  56  57
ENDBRANCH  55  56
ENDBRANCH  52  55
ENDBRANCH  50  52
ENDBRANCH  47  48
BRANCH  47  60
ATOM     60  CB  TYR A   6      29.244  -5.490  19.712  0.00  0.00    +0.055 C 
BRANCH  60  61
ATOM     61  CG  TYR A   6      30.146  -6.683  19.874  0.00  0.00    -0.020 A 
ATOM     62  CD2 TYR A   6      29.948  -7.606  20.914  0.00  0.00    -0.001 A 
ATOM     63  CE2 TYR A   6      30.776  -8.693  21.072  0.00  0.00    +0.036 A 
ATOM     64  CZ  TYR A   6      31.837  -8.894  20.204  0.00  0.00    +0.134 A 
ATOM     65  CE1 TYR A   6      32.082  -7.999  19.182  0.00  0.00    +0.036 A 
ATOM     66  CD1 TYR A   6      31.244  -6.885  19.022  0.00  0.00    -0.001 A 
BRANCH  64  67
ATOM     67  OH  TYR A   6      32.657  -9.998  20.394  0.00  0.00    -0.506 OA
ATOM     68  HH  TYR A   6      33.364 -10.006  19.701  0.00  0.00    +0.292 HD
ENDBRANCH  64  67
ENDBRANCH  60  61
ENDBRANCH  47  60
ENDBRANCH  44  47
ENDBRANCH  42  43
BRANCH  42  69
ATOM     69  CB  MET A   5      24.143  -7.352  19.157  0.00  0.00    +0.041 C 
BRANCH  69  70
ATOM     70  CG  MET A   5      23.928  -5.872  19.304  0.00  0.00    +0.060 C 
BRANCH  70  71
ATOM     71  SD  MET A   5      22.548  -5.499  20.425  0.00  0.00    -0.139 S 
ATOM     72  CE  MET A   5      21.227  -5.482  19.268  0.00  0.00    +0.069 C 
ENDBRANCH  70  71
ENDBRANCH  69  70
ENDBRANCH  42  69
ENDBRANCH  39  42
ENDBRANCH   1  38
BRANCH   1  73
ATOM     73  CB  HIS A   4      28.658 -10.321  18.909  0.00  0.00    +0.076 C 
BRANCH  73  74
ATOM     74  CG  HIS A   4      29.460 -11.435  19.484  0.00  0.00    +0.082 A 
ATOM     75  CD2 HIS A   4      29.463 -11.988  20.721  0.00  0.00    +0.115 A 
ATOM     76  NE2 HIS A   4      30.420 -12.968  20.719  0.00  0.00    -0.221 NA
ATOM     77  CE1 HIS A   4      30.974 -13.025  19.518  0.00  0.00    +0.199 A 
ATOM     78  ND1 HIS A   4      30.433 -12.089  18.759  0.00  0.00    -0.227 NA
ENDBRANCH  73  74
ENDBRANCH   1  73
TORSDOF 31
REMARK  Name = ../refined-set-2016/3fuc/3fuc_pocket.pdb
REMARK  212 active torsions:
REMARK  status: ('A' for Active; 'I' for Inactive)
REMARK    1  A    between atoms: _1  and  _3
REMARK    2  A    between atoms: _3  and  _4
REMARK    3  A    between atoms: _3  and  _6
REMARK    4  A    between atoms: _6  and  _7
REMARK    5  A    between atoms: _10  and  _12
REMARK    6  A    between atoms: _12  and  _13
REMARK    7  A    between atoms: _12  and  _15
REMARK    8  A    between atoms: _17  and  _19
REMARK    9  A    between atoms: _19  and  _20
REMARK   10  A    between atoms: _22  and  _24
REMARK   11  A    between atoms: _24  and  _25
REMARK   12  A    between atoms: _24  and  _27
REMARK   13  A    between atoms: _27  and  _28
REMARK   14  A    between atoms: _30  and  _32
REMARK   15  A    between atoms: _32  and  _33
REMARK   16  A    between atoms: _35  and  _37
REMARK   17  A    between atoms: _37  and  _38
REMARK   18  A    between atoms: _37  and  _40
REMARK   19  A    between atoms: _40  and  _41
REMARK   20  A    between atoms: _44  and  _46
REMARK   21  A    between atoms: _46  and  _47
REMARK   22  A    between atoms: _49  and  _51
REMARK   23  A    between atoms: _51  and  _52
REMARK   24  A    between atoms: _54  and  _56
REMARK   25  A    between atoms: _56  and  _57
REMARK   26  A    between atoms: _56  and  _59
REMARK   27  A    between atoms: _59  and  _60
REMARK   28  A    between atoms: _60  and  _61
REMARK   29  A    between atoms: _61  and  _62
REMARK   30  A    between atoms: _71  and  _73
REMARK   31  A    between atoms: _73  and  _74
REMARK   32  A    between atoms: _73  and  _76
REMARK   33  A    between atoms: _76  and  _77
REMARK   34  A    between atoms: _83  and  _85
REMARK   35  A    between atoms: _85  and  _86
REMARK   36  A    between atoms: _85  and  _88
REMARK   37  A    between atoms: _88  and  _89
REMARK   38  A    between atoms: _94  and  _96
REMARK   39  A    between atoms: _96  and  _97
REMARK   40  A    between atoms: _96  and  _99
REMARK   41  A    between atoms: _99  and  _100
REMARK   42  A    between atoms: _100  and  _101
REMARK   43  A    between atoms: _103  and  _105
REMARK   44  A    between atoms: _105  and  _106
REMARK   45  A    between atoms: _105  and  _108
REMARK   46  A    between atoms: _108  and  _109
REMARK   47  A    between atoms: _114  and  _115
REMARK   48  A    between atoms: _117  and  _119
REMARK   49  A    between atoms: _119  and  _120
REMARK   50  A    between atoms: _119  and  _122
REMARK   51  A    between atoms: _122  and  _123
REMARK   52  A    between atoms: _123  and  _124
REMARK   53  A    between atoms: _127  and  _129
REMARK   54  A    between atoms: _129  and  _130
REMARK   55  A    between atoms: _129  and  _132
REMARK   56  A    between atoms: _132  and  _133
REMARK   57  A    between atoms: _136  and  _138
REMARK   58  A    between atoms: _138  and  _139
REMARK   59  A    between atoms: _138  and  _141
REMARK   60  A    between atoms: _141  and  _142
REMARK   61  A    between atoms: _147  and  _149
REMARK   62  A    between atoms: _149  and  _150
REMARK   63  A    between atoms: _153  and  _155
REMARK   64  A    between atoms: _155  and  _156
REMARK   65  A    between atoms: _159  and  _161
REMARK   66  A    between atoms: _161  and  _162
REMARK   67  A    between atoms: _164  and  _166
REMARK   68  A    between atoms: _166  and  _167
REMARK   69  A    between atoms: _169  and  _171
REMARK   70  A    between atoms: _171  and  _172
REMARK   71  A    between atoms: _171  and  _174
REMARK   72  A    between atoms: _174  and  _175
REMARK   73  A    between atoms: _178  and  _180
REMARK   74  A    between atoms: _180  and  _181
REMARK   75  A    between atoms: _180  and  _183
REMARK   76  A    between atoms: _183  and  _184
REMARK   77  A    between atoms: _189  and  _190
REMARK   78  A    between atoms: _192  and  _194
REMARK   79  A    between atoms: _194  and  _195
REMARK   80  A    between atoms: _194  and  _197
REMARK   81  A    between atoms: _200  and  _202
REMARK   82  A    between atoms: _202  and  _203
REMARK   83  A    between atoms: _202  and  _205
REMARK   84  A    between atoms: _205  and  _206
REMARK   85  A    between atoms: _206  and  _207
REMARK   86  A    between atoms: _209  and  _211
REMARK   87  A    between atoms: _211  and  _212
REMARK   88  A    between atoms: _211  and  _214
REMARK   89  A    between atoms: _214  and  _215
REMARK   90  A    between atoms: _218  and  _220
REMARK   91  A    between atoms: _220  and  _221
REMARK   92  A    between atoms: _223  and  _225
REMARK   93  A    between atoms: _225  and  _226
REMARK   94  A    between atoms: _229  and  _230
REMARK   95  A    between atoms: _235  and  _237
REMARK   96  A    between atoms: _237  and  _238
REMARK   97  A    between atoms: _237  and  _240
REMARK   98  A    between atoms: _240  and  _241
REMARK   99  A    between atoms: _246  and  _248
REMARK  100  A    between atoms: _248  and  _249
REMARK  101  A    between atoms: _248  and  _251
REMARK  102  A    between atoms: _251  and  _252
REMARK  103  A    between atoms: _258  and  _260
REMARK  104  A    between atoms: _260  and  _261
REMARK  105  A    between atoms: _260  and  _263
REMARK  106  A    between atoms: _263  and  _264
REMARK  107  A    between atoms: _264  and  _265
REMARK  108  A    between atoms: _268  and  _270
REMARK  109  A    between atoms: _270  and  _271
REMARK  110  A    between atoms: _270  and  _273
REMARK  111  A    between atoms: _275  and  _277
REMARK  112  A    between atoms: _277  and  _278
REMARK  113  A    between atoms: _277  and  _280
REMARK  114  A    between atoms: _280  and  _281
REMARK  115  A    between atoms: _284  and  _286
REMARK  116  A    between atoms: _286  and  _287
REMARK  117  A    between atoms: _290  and  _292
REMARK  118  A    between atoms: _292  and  _293
REMARK  119  A    between atoms: _292  and  _295
REMARK  120  A    between atoms: _298  and  _300
REMARK  121  A    between atoms: _300  and  _301
REMARK  122  A    between atoms: _303  and  _305
REMARK  123  A    between atoms: _305  and  _306
REMARK  124  A    between atoms: _305  and  _308
REMARK  125  A    between atoms: _308  and  _309
REMARK  126  A    between atoms: _309  and  _310
REMARK  127  A    between atoms: _312  and  _314
REMARK  128  A    between atoms: _314  and  _315
REMARK  129  A    between atoms: _314  and  _317
REMARK  130  A    between atoms: _317  and  _318
REMARK  131  A    between atoms: _320  and  _322
REMARK  132  A    between atoms: _322  and  _323
REMARK  133  A    between atoms: _322  and  _325
REMARK  134  A    between atoms: _325  and  _326
REMARK  135  A    between atoms: _329  and  _331
REMARK  136  A    between atoms: _331  and  _332
REMARK  137  A    between atoms: _331  and  _334
REMARK  138  A    between atoms: _337  and  _339
REMARK  139  A    between atoms: _339  and  _340
REMARK  140  A    between atoms: _339  and  _342
REMARK  141  A    between atoms: _342  and  _343
REMARK  142  A    between atoms: _343  and  _344
REMARK  143  A    between atoms: _347  and  _349
REMARK  144  A    between atoms: _349  and  _350
REMARK  145  A    between atoms: _349  and  _352
REMARK  146  A    between atoms: _352  and  _353
REMARK  147  A    between atoms: _359  and  _361
REMARK  148  A    between atoms: _361  and  _362
REMARK  149  A    between atoms: _361  and  _364
REMARK  150  A    between atoms: _364  and  _365
REMARK  151  A    between atoms: _367  and  _369
REMARK  152  A    between atoms: _369  and  _370
REMARK  153  A    between atoms: _369  and  _372
REMARK  154  A    between atoms: _372  and  _373
REMARK  155  A    between atoms: _376  and  _378
REMARK  156  A    between atoms: _378  and  _379
REMARK  157  A    between atoms: _378  and  _381
REMARK  158  A    between atoms: _381  and  _382
REMARK  159  A    between atoms: _385  and  _387
REMARK  160  A    between atoms: _387  and  _388
REMARK  161  A    between atoms: _387  and  _390
REMARK  162  A    between atoms: _390  and  _391
REMARK  163  A    between atoms: _394  and  _396
REMARK  164  A    between atoms: _396  and  _397
REMARK  165  A    between atoms: _396  and  _399
REMARK  166  A    between atoms: _399  and  _400
REMARK  167  A    between atoms: _405  and  _407
REMARK  168  A    between atoms: _407  and  _408
REMARK  169  A    between atoms: _407  and  _410
REMARK  170  A    between atoms: _410  and  _411
REMARK  171  A    between atoms: _411  and  _412
REMARK  172  A    between atoms: _412  and  _413
REMARK  173  A    between atoms: _413  and  _414
REMARK  174  A    between atoms: _418  and  _420
REMARK  175  A    between atoms: _420  and  _421
REMARK  176  A    between atoms: _420  and  _423
REMARK  177  A    between atoms: _426  and  _428
REMARK  178  A    between atoms: _428  and  _429
REMARK  179  A    between atoms: _428  and  _431
REMARK  180  A    between atoms: _431  and  _432
REMARK  181  A    between atoms: _435  and  _437
REMARK  182  A    between atoms: _437  and  _438
REMARK  183  A    between atoms: _441  and  _443
REMARK  184  A    between atoms: _443  and  _444
REMARK  185  A    between atoms: _443  and  _446
REMARK  186  A    between atoms: _446  and  _447
REMARK  187  A    between atoms: _452  and  _454
REMARK  188  A    between atoms: _454  and  _455
REMARK  189  A    between atoms: _454  and  _457
REMARK  190  A    between atoms: _457  and  _458
REMARK  191  A    between atoms: _463  and  _465
REMARK  192  A    between atoms: _465  and  _466
REMARK  193  A    between atoms: _465  and  _468
REMARK  194  A    between atoms: _468  and  _469
REMARK  195  A    between atoms: _469  and  _470
REMARK  196  A    between atoms: _473  and  _475
REMARK  197  A    between atoms: _475  and  _476
REMARK  198  A    between atoms: _475  and  _478
REMARK  199  A    between atoms: _481  and  _483
REMARK  200  A    between atoms: _483  and  _484
REMARK  201  A    between atoms: _483  and  _486
REMARK  202  A    between atoms: _486  and  _487
REMARK  203  A    between atoms: _490  and  _492
REMARK  204  A    between atoms: _492  and  _493
REMARK  205  A    between atoms: _492  and  _495
REMARK  206  A    between atoms: _495  and  _496
REMARK  207  A    between atoms: _496  and  _497
REMARK  208  A    between atoms: _497  and  _498
REMARK  209  A    between atoms: _507  and  _509
REMARK  210  A    between atoms: _509  and  _510
REMARK  211  A    between atoms: _509  and  _512
REMARK  212  A    between atoms: _512  and  _513
REMARK                            x       y       z     vdW  Elec       q    Type
REMARK                         _______ _______ _______ _____ _____    ______ ____
ROOT
ATOM      1  C   ALA A   3      31.994 -13.261  29.611  0.00  0.00    +0.241 C 
ATOM      2  N   ALA A   4      32.197 -12.862  30.859  0.00  0.00    -0.297 N 
ATOM      3  H   ALA A   4      32.941 -13.314  31.427  0.00  0.00    +0.150 HD
ATOM      4  O   ALA A   3      31.154 -12.719  28.864  0.00  0.00    -0.273 OA
ENDROOT
BRANCH   1   5
ATOM      5  CA  ALA A   3      32.868 -14.397  29.099  0.00  0.00    +0.149 C 
ATOM      6  CB  ALA A   3      34.131 -13.800  28.521  0.00  0.00    +0.031 C 
BRANCH   5   9
ATOM      7  C   ASN A   2      31.464 -16.286  28.373  0.00  0.00    +0.241 C 
ATOM      8  O   ASN A   2      31.677 -16.998  29.394  0.00  0.00    -0.273 OA
ATOM      9  N   ALA A   3      32.129 -15.173  28.084  0.00  0.00    -0.297 N 
ATOM     10  H   ALA A   3      32.129 -14.834  27.101  0.00  0.00    +0.150 HD
BRANCH   7  11
ATOM     11  CA  ASN A   2      30.403 -16.708  27.365  0.00  0.00    +0.158 C 
BRANCH  11  13
ATOM     12  C   THR A   1      29.290 -18.776  26.803  0.00  0.00    +0.241 C 
ATOM     13  N   ASN A   2      29.907 -18.028  27.713  0.00  0.00    -0.297 N 
ATOM     14  H   ASN A   2      30.035 -18.390  28.679  0.00  0.00    +0.150 HD
ATOM     15  O   THR A   1      29.106 -18.428  25.619  0.00  0.00    -0.274 OA
BRANCH  12  16
ATOM     16  CA  THR A   1      28.815 -20.117  27.295  0.00  0.00    +0.172 C 
BRANCH  16  17
ATOM     17  N   THR A   1      27.901 -20.749  26.341  0.00  0.00    -0.236 NA
ATOM     18  H   THR A   1      28.077 -20.687  25.318  0.00  0.00    +0.142 HD
ENDBRANCH  16  17
BRANCH  16  19
ATOM     19  CB  THR A   1      30.006 -21.011  27.669  0.00  0.00    +0.135 C 
ATOM     20  CG2 THR A   1      29.627 -22.491  27.753  0.00  0.00    +0.034 C 
BRANCH  19  21
ATOM     21  OG1 THR A   1      30.999 -20.916  26.646  0.00  0.00    -0.383 OA
ATOM     22  HG1 THR A   1      31.299 -19.976  26.565  0.00  0.00    +0.210 HD
ENDBRANCH  19  21
ENDBRANCH  16  19
ENDBRANCH  12  16
ENDBRANCH  11  13
BRANCH  11  23
ATOM     23  CB  ASN A   2      29.247 -15.701  27.329  0.00  0.00    +0.114 C 
BRANCH  23  24
ATOM     24  CG  ASN A   2      28.515 -15.646  28.637  0.00  0.00    +0.222 C 
ATOM     25  OD1 ASN A   2      29.102 -15.357  29.674  0.00  0.00    -0.275 OA
ATOM     26  ND2 ASN A   2      27.196 -15.859  28.587  0.00  0.00    -0.329 N 
ATOM     27 HD21 ASN A   2      26.624 -15.782  29.452  0.00  0.00    +0.145 HD
ATOM     28 HD22 ASN A   2      26.742 -16.102  27.683  0.00  0.00    +0.145 HD
ENDBRANCH  23  24
ENDBRANCH  11  23
ENDBRANCH   7  11
ENDBRANCH   5   9
ENDBRANCH   1   5
BRANCH   2  29
ATOM     29  CA  ALA A   4      31.395 -11.804  31.442  0.00  0.00    +0.149 C 
ATOM     30  CB  ALA A   4      30.146 -12.371  32.084  0.00  0.00    +0.031 C 
BRANCH  29  31
ATOM     31  C   ALA A   4      32.194 -11.058  32.480  0.00  0.00    +0.241 C 
ATOM     32  O   ALA A   4      33.113 -11.613  33.107  0.00  0.00    -0.273 OA
ATOM     33  N   GLY A   5      31.848  -9.799  32.678  0.00  0.00    -0.295 N 
ATOM     34  H   GLY A   5      31.185  -9.339  32.021  0.00  0.00    +0.150 HD
BRANCH  33  35
ATOM     35  CA  GLY A   5      32.385  -9.042  33.810  0.00  0.00    +0.176 C 
BRANCH  35  36
ATOM     36  C   GLY A   5      31.623  -9.349  35.088  0.00  0.00    +0.243 C 
ATOM     37  N   GLY A   6      32.335  -9.428  36.214  0.00  0.00    -0.295 N 
ATOM     38  H   GLY A   6      33.363  -9.273  36.177  0.00  0.00    +0.150 HD
ATOM     39  O   GLY A   5      30.389  -9.499  35.091  0.00  0.00    -0.273 OA
BRANCH  37  40
ATOM     40  CA  GLY A   6      31.710  -9.724  37.486  0.00  0.00    +0.176 C 
BRANCH  40  41
ATOM     41  C   GLY A   6      31.125  -8.470  38.107  0.00  0.00    +0.243 C 
ATOM     42  O   GLY A   6      31.846  -7.506  38.396  0.00  0.00    -0.273 OA
ATOM     43  N   LEU A   7      29.802  -8.458  38.246  0.00  0.00    -0.298 N 
ATOM     44  H   LEU A   7      29.242  -9.227  37.826  0.00  0.00    +0.150 HD
BRANCH  43  45
ATOM     45  CA  LEU A   7      29.117  -7.396  38.972  0.00  0.00    +0.137 C 
BRANCH  45  46
ATOM     46  C   LEU A   7      28.972  -7.725  40.452  0.00  0.00    +0.227 C 
ATOM     47  O   LEU A   7      28.995  -6.818  41.318  0.00  0.00    -0.286 OA
ENDBRANCH  45  46
BRANCH  45  48
ATOM     48  CB  LEU A   7      27.718  -7.135  38.383  0.00  0.00    +0.028 C 
BRANCH  48  49
ATOM     49  CG  LEU A   7      27.617  -6.661  36.925  0.00  0.00    +0.002 C 
ATOM     50  CD2 LEU A   7      28.107  -5.226  36.777  0.00  0.00    +0.000 C 
ATOM     51  CD1 LEU A   7      26.200  -6.809  36.470  0.00  0.00    +0.000 C 
ENDBRANCH  48  49
ENDBRANCH  45  48
ENDBRANCH  43  45
ENDBRANCH  40  41
ENDBRANCH  37  40
ENDBRANCH  35  36
ENDBRANCH  33  35
ENDBRANCH  29  31
ENDBRANCH   2  29
TORSDOF 20
REMARK  Name = ../refined-set-2016/3fuc/3fuc_pocket.pdb
REMARK  212 active torsions:
REMARK  status: ('A' for Active; 'I' for Inactive)
REMARK    1  A    between atoms: _1  and  _3
REMARK    2  A    between atoms: _3  and  _4
REMARK    3  A    between atoms: _3  and  _6
REMARK    4  A    between atoms: _6  and  _7
REMARK    5  A    between atoms: _10  and  _12
REMARK    6  A    between atoms: _12  and  _13
REMARK    7  A    between atoms: _12  and  _15
REMARK    8  A    between atoms: _17  and  _19
REMARK    9  A    between atoms: _19  and  _20
REMARK   10  A    between atoms: _22  and  _24
REMARK   11  A    between atoms: _24  and  _25
REMARK   12  A    between atoms: _24  and  _27
REMARK   13  A    between atoms: _27  and  _28
REMARK   14  A    between atoms: _30  and  _32
REMARK   15  A    between atoms: _32  and  _33
REMARK   16  A    between atoms: _35  and  _37
REMARK   17  A    between atoms: _37  and  _38
REMARK   18  A    between atoms: _37  and  _40
REMARK   19  A    between atoms: _40  and  _41
REMARK   20  A    between atoms: _44  and  _46
REMARK   21  A    between atoms: _46  and  _47
REMARK   22  A    between atoms: _49  and  _51
REMARK   23  A    between atoms: _51  and  _52
REMARK   24  A    between atoms: _54  and  _56
REMARK   25  A    between atoms: _56  and  _57
REMARK   26  A    between atoms: _56  and  _59
REMARK   27  A    between atoms: _59  and  _60
REMARK   28  A    between atoms: _60  and  _61
REMARK   29  A    between atoms: _61  and  _62
REMARK   30  A    between atoms: _71  and  _73
REMARK   31  A    between atoms: _73  and  _74
REMARK   32  A    between atoms: _73  and  _76
REMARK   33  A    between atoms: _76  and  _77
REMARK   34  A    between atoms: _83  and  _85
REMARK   35  A    between atoms: _85  and  _86
REMARK   36  A    between atoms: _85  and  _88
REMARK   37  A    between atoms: _88  and  _89
REMARK   38  A    between atoms: _94  and  _96
REMARK   39  A    between atoms: _96  and  _97
REMARK   40  A    between atoms: _96  and  _99
REMARK   41  A    between atoms: _99  and  _100
REMARK   42  A    between atoms: _100  and  _101
REMARK   43  A    between atoms: _103  and  _105
REMARK   44  A    between atoms: _105  and  _106
REMARK   45  A    between atoms: _105  and  _108
REMARK   46  A    between atoms: _108  and  _109
REMARK   47  A    between atoms: _114  and  _115
REMARK   48  A    between atoms: _117  and  _119
REMARK   49  A    between atoms: _119  and  _120
REMARK   50  A    between atoms: _119  and  _122
REMARK   51  A    between atoms: _122  and  _123
REMARK   52  A    between atoms: _123  and  _124
REMARK   53  A    between atoms: _127  and  _129
REMARK   54  A    between atoms: _129  and  _130
REMARK   55  A    between atoms: _129  and  _132
REMARK   56  A    between atoms: _132  and  _133
REMARK   57  A    between atoms: _136  and  _138
REMARK   58  A    between atoms: _138  and  _139
REMARK   59  A    between atoms: _138  and  _141
REMARK   60  A    between atoms: _141  and  _142
REMARK   61  A    between atoms: _147  and  _149
REMARK   62  A    between atoms: _149  and  _150
REMARK   63  A    between atoms: _153  and  _155
REMARK   64  A    between atoms: _155  and  _156
REMARK   65  A    between atoms: _159  and  _161
REMARK   66  A    between atoms: _161  and  _162
REMARK   67  A    between atoms: _164  and  _166
REMARK   68  A    between atoms: _166  and  _167
REMARK   69  A    between atoms: _169  and  _171
REMARK   70  A    between atoms: _171  and  _172
REMARK   71  A    between atoms: _171  and  _174
REMARK   72  A    between atoms: _174  and  _175
REMARK   73  A    between atoms: _178  and  _180
REMARK   74  A    between atoms: _180  and  _181
REMARK   75  A    between atoms: _180  and  _183
REMARK   76  A    between atoms: _183  and  _184
REMARK   77  A    between atoms: _189  and  _190
REMARK   78  A    between atoms: _192  and  _194
REMARK   79  A    between atoms: _194  and  _195
REMARK   80  A    between atoms: _194  and  _197
REMARK   81  A    between atoms: _200  and  _202
REMARK   82  A    between atoms: _202  and  _203
REMARK   83  A    between atoms: _202  and  _205
REMARK   84  A    between atoms: _205  and  _206
REMARK   85  A    between atoms: _206  and  _207
REMARK   86  A    between atoms: _209  and  _211
REMARK   87  A    between atoms: _211  and  _212
REMARK   88  A    between atoms: _211  and  _214
REMARK   89  A    between atoms: _214  and  _215
REMARK   90  A    between atoms: _218  and  _220
REMARK   91  A    between atoms: _220  and  _221
REMARK   92  A    between atoms: _223  and  _225
REMARK   93  A    between atoms: _225  and  _226
REMARK   94  A    between atoms: _229  and  _230
REMARK   95  A    between atoms: _235  and  _237
REMARK   96  A    between atoms: _237  and  _238
REMARK   97  A    between atoms: _237  and  _240
REMARK   98  A    between atoms: _240  and  _241
REMARK   99  A    between atoms: _246  and  _248
REMARK  100  A    between atoms: _248  and  _249
REMARK  101  A    between atoms: _248  and  _251
REMARK  102  A    between atoms: _251  and  _252
REMARK  103  A    between atoms: _258  and  _260
REMARK  104  A    between atoms: _260  and  _261
REMARK  105  A    between atoms: _260  and  _263
REMARK  106  A    between atoms: _263  and  _264
REMARK  107  A    between atoms: _264  and  _265
REMARK  108  A    between atoms: _268  and  _270
REMARK  109  A    between atoms: _270  and  _271
REMARK  110  A    between atoms: _270  and  _273
REMARK  111  A    between atoms: _275  and  _277
REMARK  112  A    between atoms: _277  and  _278
REMARK  113  A    between atoms: _277  and  _280
REMARK  114  A    between atoms: _280  and  _281
REMARK  115  A    between atoms: _284  and  _286
REMARK  116  A    between atoms: _286  and  _287
REMARK  117  A    between atoms: _290  and  _292
REMARK  118  A    between atoms: _292  and  _293
REMARK  119  A    between atoms: _292  and  _295
REMARK  120  A    between atoms: _298  and  _300
REMARK  121  A    between atoms: _300  and  _301
REMARK  122  A    between atoms: _303  and  _305
REMARK  123  A    between atoms: _305  and  _306
REMARK  124  A    between atoms: _305  and  _308
REMARK  125  A    between atoms: _308  and  _309
REMARK  126  A    between atoms: _309  and  _310
REMARK  127  A    between atoms: _312  and  _314
REMARK  128  A    between atoms: _314  and  _315
REMARK  129  A    between atoms: _314  and  _317
REMARK  130  A    between atoms: _317  and  _318
REMARK  131  A    between atoms: _320  and  _322
REMARK  132  A    between atoms: _322  and  _323
REMARK  133  A    between atoms: _322  and  _325
REMARK  134  A    between atoms: _325  and  _326
REMARK  135  A    between atoms: _329  and  _331
REMARK  136  A    between atoms: _331  and  _332
REMARK  137  A    between atoms: _331  and  _334
REMARK  138  A    between atoms: _337  and  _339
REMARK  139  A    between atoms: _339  and  _340
REMARK  140  A    between atoms: _339  and  _342
REMARK  141  A    between atoms: _342  and  _343
REMARK  142  A    between atoms: _343  and  _344
REMARK  143  A    between atoms: _347  and  _349
REMARK  144  A    between atoms: _349  and  _350
REMARK  145  A    between atoms: _349  and  _352
REMARK  146  A    between atoms: _352  and  _353
REMARK  147  A    between atoms: _359  and  _361
REMARK  148  A    between atoms: _361  and  _362
REMARK  149  A    between atoms: _361  and  _364
REMARK  150  A    between atoms: _364  and  _365
REMARK  151  A    between atoms: _367  and  _369
REMARK  152  A    between atoms: _369  and  _370
REMARK  153  A    between atoms: _369  and  _372
REMARK  154  A    between atoms: _372  and  _373
REMARK  155  A    between atoms: _376  and  _378
REMARK  156  A    between atoms: _378  and  _379
REMARK  157  A    between atoms: _378  and  _381
REMARK  158  A    between atoms: _381  and  _382
REMARK  159  A    between atoms: _385  and  _387
REMARK  160  A    between atoms: _387  and  _388
REMARK  161  A    between atoms: _387  and  _390
REMARK  162  A    between atoms: _390  and  _391
REMARK  163  A    between atoms: _394  and  _396
REMARK  164  A    between atoms: _396  and  _397
REMARK  165  A    between atoms: _396  and  _399
REMARK  166  A    between atoms: _399  and  _400
REMARK  167  A    between atoms: _405  and  _407
REMARK  168  A    between atoms: _407  and  _408
REMARK  169  A    between atoms: _407  and  _410
REMARK  170  A    between atoms: _410  and  _411
REMARK  171  A    between atoms: _411  and  _412
REMARK  172  A    between atoms: _412  and  _413
REMARK  173  A    between atoms: _413  and  _414
REMARK  174  A    between atoms: _418  and  _420
REMARK  175  A    between atoms: _420  and  _421
REMARK  176  A    between atoms: _420  and  _423
REMARK  177  A    between atoms: _426  and  _428
REMARK  178  A    between atoms: _428  and  _429
REMARK  179  A    between atoms: _428  and  _431
REMARK  180  A    between atoms: _431  and  _432
REMARK  181  A    between atoms: _435  and  _437
REMARK  182  A    between atoms: _437  and  _438
REMARK  183  A    between atoms: _441  and  _443
REMARK  184  A    between atoms: _443  and  _444
REMARK  185  A    between atoms: _443  and  _446
REMARK  186  A    between atoms: _446  and  _447
REMARK  187  A    between atoms: _452  and  _454
REMARK  188  A    between atoms: _454  and  _455
REMARK  189  A    between atoms: _454  and  _457
REMARK  190  A    between atoms: _457  and  _458
REMARK  191  A    between atoms: _463  and  _465
REMARK  192  A    between atoms: _465  and  _466
REMARK  193  A    between atoms: _465  and  _468
REMARK  194  A    between atoms: _468  and  _469
REMARK  195  A    between atoms: _469  and  _470
REMARK  196  A    between atoms: _473  and  _475
REMARK  197  A    between atoms: _475  and  _476
REMARK  198  A    between atoms: _475  and  _478
REMARK  199  A    between atoms: _481  and  _483
REMARK  200  A    between atoms: _483  and  _484
REMARK  201  A    between atoms: _483  and  _486
REMARK  202  A    between atoms: _486  and  _487
REMARK  203  A    between atoms: _490  and  _492
REMARK  204  A    between atoms: _492  and  _493
REMARK  205  A    between atoms: _492  and  _495
REMARK  206  A    between atoms: _495  and  _496
REMARK  207  A    between atoms: _496  and  _497
REMARK  208  A    between atoms: _497  and  _498
REMARK  209  A    between atoms: _507  and  _509
REMARK  210  A    between atoms: _509  and  _510
REMARK  211  A    between atoms: _509  and  _512
REMARK  212  A    between atoms: _512  and  _513
REMARK                            x       y       z     vdW  Elec       q    Type
REMARK                         _______ _______ _______ _____ _____    ______ ____
ROOT
ATOM      1  C   GLY A   5      26.505  -4.542  23.176  0.00  0.00    +0.243 C 
ATOM      2  N   GLY A   6      27.146  -3.718  24.002  0.00  0.00    -0.295 N 
ATOM      3  H   GLY A   6      26.634  -3.247  24.775  0.00  0.00    +0.150 HD
ATOM      4  O   GLY A   5      27.096  -5.244  22.324  0.00  0.00    -0.273 OA
ENDROOT
BRANCH   1   5
ATOM      5  CA  GLY A   5      24.987  -4.562  23.244  0.00  0.00    +0.176 C 
BRANCH   5   8
ATOM      6  C   LEU A   4      24.609  -5.473  25.434  0.00  0.00    +0.241 C 
ATOM      7  O   LEU A   4      25.334  -6.416  25.167  0.00  0.00    -0.273 OA
ATOM      8  N   GLY A   5      24.412  -4.475  24.588  0.00  0.00    -0.295 N 
ATOM      9  H   GLY A   5      23.858  -3.642  24.873  0.00  0.00    +0.150 HD
BRANCH   6  10
ATOM     10  CA  LEU A   4      23.846  -5.421  26.747  0.00  0.00    +0.149 C 
BRANCH  10  13
ATOM     11  C   MET A   3      22.911  -7.361  27.875  0.00  0.00    +0.241 C 
ATOM     12  O   MET A   3      21.764  -6.856  27.995  0.00  0.00    -0.273 OA
ATOM     13  N   LEU A   4      23.977  -6.713  27.422  0.00  0.00    -0.297 N 
ATOM     14  H   LEU A   4      24.921  -7.130  27.549  0.00  0.00    +0.150 HD
BRANCH  11  15
ATOM     15  CA  MET A   3      23.157  -8.825  28.236  0.00  0.00    +0.149 C 
BRANCH  15  18
ATOM     16  C   VAL A   2      23.357  -9.102  30.650  0.00  0.00    +0.241 C 
ATOM     17  O   VAL A   2      24.573  -8.970  30.638  0.00  0.00    -0.273 OA
ATOM     18  N   MET A   3      22.601  -9.091  29.545  0.00  0.00    -0.297 N 
ATOM     19  H   MET A   3      21.582  -9.280  29.630  0.00  0.00    +0.150 HD
BRANCH  16  20
ATOM     20  CA  VAL A   2      22.616  -9.320  31.970  0.00  0.00    +0.148 C 
BRANCH  20  22
ATOM     21  C   TYR A   1      22.748 -11.594  32.801  0.00  0.00    +0.239 C 
ATOM     22  N   VAL A   2      23.287 -10.389  32.724  0.00  0.00    -0.297 N 
ATOM     23  H   VAL A   2      24.191 -10.196  33.200  0.00  0.00    +0.150 HD
ATOM     24  O   TYR A   1      21.624 -11.861  32.360  0.00  0.00    -0.274 OA
BRANCH  21  25
ATOM     25  CA  TYR A   1      23.591 -12.676  33.483  0.00  0.00    +0.149 C 
BRANCH  25  26
ATOM     26  N   TYR A   1      22.788 -13.332  34.528  0.00  0.00    -0.238 NA
ATOM     27  H   TYR A   1      22.126 -14.086  34.255  0.00  0.00    +0.142 HD
ENDBRANCH  25  26
BRANCH  25  28
ATOM     28  CB  TYR A   1      23.988 -13.736  32.472  0.00  0.00    +0.053 C 
BRANCH  28  29
ATOM     29  CG  TYR A   1      24.729 -13.279  31.248  0.00  0.00    -0.020 A 
ATOM     30  CD2 TYR A   1      26.109 -13.219  31.214  0.00  0.00    -0.001 A 
ATOM     31  CE2 TYR A   1      26.789 -12.840  30.039  0.00  0.00    +0.036 A 
ATOM     32  CZ  TYR A   1      26.074 -12.557  28.893  0.00  0.00    +0.134 A 
ATOM     33  CE1 TYR A   1      24.708 -12.616  28.916  0.00  0.00    +0.036 A 
ATOM     34  CD1 TYR A   1      24.033 -12.994  30.070  0.00  0.00    -0.001 A 
BRANCH  32  35
ATOM     35  OH  TYR A   1      26.699 -12.236  27.707  0.00  0.00    -0.506 OA
ATOM     36  HH  TYR A   1      27.680 -12.232  27.843  0.00  0.00    +0.292 HD
ENDBRANCH  32  35
ENDBRANCH  28  29
ENDBRANCH  25  28
ENDBRANCH  21  25
ENDBRANCH  20  22
BRANCH  20  37
ATOM     37  CB  VAL A   2      22.460  -8.022  32.822  0.00  0.00    +0.027 C 
ATOM     38  CG2 VAL A   2      23.797  -7.450  33.297  0.00  0.00    +0.002 C 
ATOM     39  CG1 VAL A   2      21.729  -6.957  32.002  0.00  0.00    +0.002 C 
ENDBRANCH  20  37
ENDBRANCH  16  20
ENDBRANCH  15  18
BRANCH  15  40
ATOM     40  CB  MET A   3      22.501  -9.755  27.214  0.00  0.00    +0.041 C 
BRANCH  40  41
ATOM     41  CG  MET A   3      23.169  -9.760  25.843  0.00  0.00    +0.060 C 
BRANCH  41  42
ATOM     42  SD  MET A   3      22.426  -8.514  24.733  0.00  0.00    -0.139 S 
ATOM     43  CE  MET A   3      23.515  -8.503  23.297  0.00  0.00    +0.069 C 
ENDBRANCH  41  42
ENDBRANCH  40  41
ENDBRANCH  15  40
ENDBRANCH  11  15
ENDBRANCH  10  13
BRANCH  10  44
ATOM     44  CB  LEU A   4      24.231  -4.253  27.620  0.00  0.00    +0.029 C 
BRANCH  44  45
ATOM     45  CG  LEU A   4      25.379  -4.470  28.572  0.00  0.00    +0.002 C 
ATOM     46  CD2 LEU A   4      25.534  -3.234  29.466  0.00  0.00    +0.000 C 
ATOM     47  CD1 LEU A   4      26.673  -4.769  27.832  0.00  0.00    +0.000 C 
ENDBRANCH  44  45
ENDBRANCH  10  44
ENDBRANCH   6  10
ENDBRANCH   5   8
ENDBRANCH   1   5
BRANCH   2  48
ATOM     48  CA  GLY A   6      28.594  -3.479  23.809  0.00  0.00    +0.176 C 
BRANCH  48  49
ATOM     49  C   GLY A   6      28.834  -2.673  22.510  0.00  0.00    +0.246 C 
ATOM     50  N   PRO A   7      30.084  -2.554  22.031  0.00  0.00    -0.272 N 
ATOM     51  CA  PRO A   7      31.263  -3.265  22.517  0.00  0.00    +0.152 C 
ATOM     52  CB  PRO A   7      32.105  -3.379  21.249  0.00  0.00    +0.031 C 
ATOM     53  CG  PRO A   7      31.829  -2.107  20.546  0.00  0.00    +0.024 C 
ATOM     54  CD  PRO A   7      30.366  -1.753  20.811  0.00  0.00    +0.094 C 
ATOM     55  O   GLY A   6      27.889  -2.170  21.892  0.00  0.00    -0.273 OA
BRANCH  51  56
ATOM     56  C   PRO A   7      32.085  -2.572  23.580  0.00  0.00    +0.241 C 
ATOM     57  O   PRO A   7      33.059  -3.160  24.043  0.00  0.00    -0.273 OA
ATOM     58  N   ASN A   8      31.759  -1.341  23.965  0.00  0.00    -0.297 N 
ATOM     59  H   ASN A   8      30.975  -0.831  23.510  0.00  0.00    +0.150 HD
BRANCH  58  60
ATOM     60  CA  ASN A   8      32.529  -0.721  25.043  0.00  0.00    +0.158 C 
BRANCH  60  61
ATOM     61  C   ASN A   8      32.213  -1.416  26.368  0.00  0.00    +0.241 C 
ATOM     62  N   PHE A   9      33.179  -1.398  27.286  0.00  0.00    -0.297 N 
ATOM     63  H   PHE A   9      34.138  -1.105  27.011  0.00  0.00    +0.150 HD
ATOM     64  O   ASN A   8      31.121  -1.974  26.549  0.00  0.00    -0.273 OA
BRANCH  62  65
ATOM     65  CA  PHE A   9      32.919  -1.778  28.655  0.00  0.00    +0.153 C 
BRANCH  65  66
ATOM     66  C   PHE A   9      32.232  -0.629  29.418  0.00  0.00    +0.241 C 
ATOM     67  N   GLU A  10      31.615  -0.967  30.545  0.00  0.00    -0.298 N 
ATOM     68  H   GLU A  10      31.783  -1.915  30.938  0.00  0.00    +0.150 HD
ATOM     69  O   PHE A   9      32.278   0.528  28.997  0.00  0.00    -0.273 OA
BRANCH  67  70
ATOM     70  CA  GLU A  10      30.712  -0.069  31.257  0.00  0.00    +0.137 C 
BRANCH  70  71
ATOM     71  C   GLU A  10      31.398   1.037  32.036  0.00  0.00    +0.227 C 
ATOM     72  O   GLU A  10      32.520   0.871  32.564  0.00  0.00    -0.286 OA
ENDBRANCH  70  71
BRANCH  70  73
ATOM     73  CB  GLU A  10      29.899  -0.853  32.271  0.00  0.00    +0.039 C 
BRANCH  73  74
ATOM     74  CG  GLU A  10      28.890  -1.810  31.654  0.00  0.00    +0.116 C 
BRANCH  74  75
ATOM     75  CD  GLU A  10      29.514  -3.025  30.987  0.00  0.00    +0.365 C 
ATOM     76  OE2 GLU A  10      30.588  -3.515  31.451  0.00  0.00    -0.246 OA
ATOM     77  OE1 GLU A  10      28.935  -3.475  29.985  0.00  0.00    -0.246 OA
ENDBRANCH  74  75
ENDBRANCH  73  74
ENDBRANCH  70  73
ENDBRANCH  67  70
ENDBRANCH  65  66
BRANCH  65  78
ATOM     78  CB  PHE A   9      34.226  -2.186  29.354  0.00  0.00    +0.055 C 
BRANCH  78  79
ATOM     79  CG  PHE A   9      34.925  -3.379  28.745  0.00  0.00    -0.020 A 
ATOM     80  CD2 PHE A   9      34.307  -4.624  28.694  0.00  0.00    -0.004 A 
ATOM     81  CE2 PHE A   9      34.973  -5.763  28.171  0.00  0.00    -0.000 A 
ATOM     82  CZ  PHE A   9      36.284  -5.657  27.739  0.00  0.00    -0.000 A 
ATOM     83  CE1 PHE A   9      36.942  -4.425  27.816  0.00  0.00    -0.000 A 
ATOM     84  CD1 PHE A   9      36.251  -3.282  28.327  0.00  0.00    -0.004 A 
ENDBRANCH  78  79
ENDBRANCH  65  78
ENDBRANCH  62  65
ENDBRANCH  60  61
BRANCH  60  85
ATOM     85  CB  ASN A   8      32.249   0.788  25.186  0.00  0.00    +0.114 C 
BRANCH  85  86
ATOM     86  CG  ASN A   8      30.802   1.076  25.547  0.00  0.00    +0.222 C 
ATOM     87  ND2 ASN A   8      30.521   1.251  26.838  0.00  0.00    -0.329 N 
ATOM     88 HD21 ASN A   8      31.288   1.264  27.540  0.00  0.00    +0.145 HD
ATOM     89 HD22 ASN A   8      29.535   1.374  27.143  0.00  0.00    +0.145 HD
ATOM     90  OD1 ASN A   8      29.937   1.052  24.676  0.00  0.00    -0.275 OA
ENDBRANCH  85  86
ENDBRANCH  60  85
ENDBRANCH  58  60
ENDBRANCH  51  56
ENDBRANCH  48  49
ENDBRANCH   2  48
TORSDOF 35
REMARK  Name = ../refined-set-2016/3fuc/3fuc_pocket.pdb
REMARK  212 active torsions:
REMARK  status: ('A' for Active; 'I' for Inactive)
REMARK    1  A    between atoms: _1  and  _3
REMARK    2  A    between atoms: _3  and  _4
REMARK    3  A    between atoms: _3  and  _6
REMARK    4  A    between atoms: _6  and  _7
REMARK    5  A    between atoms: _10  and  _12
REMARK    6  A    between atoms: _12  and  _13
REMARK    7  A    between atoms: _12  and  _15
REMARK    8  A    between atoms: _17  and  _19
REMARK    9  A    between atoms: _19  and  _20
REMARK   10  A    between atoms: _22  and  _24
REMARK   11  A    between atoms: _24  and  _25
REMARK   12  A    between atoms: _24  and  _27
REMARK   13  A    between atoms: _27  and  _28
REMARK   14  A    between atoms: _30  and  _32
REMARK   15  A    between atoms: _32  and  _33
REMARK   16  A    between atoms: _35  and  _37
REMARK   17  A    between atoms: _37  and  _38
REMARK   18  A    between atoms: _37  and  _40
REMARK   19  A    between atoms: _40  and  _41
REMARK   20  A    between atoms: _44  and  _46
REMARK   21  A    between atoms: _46  and  _47
REMARK   22  A    between atoms: _49  and  _51
REMARK   23  A    between atoms: _51  and  _52
REMARK   24  A    between atoms: _54  and  _56
REMARK   25  A    between atoms: _56  and  _57
REMARK   26  A    between atoms: _56  and  _59
REMARK   27  A    between atoms: _59  and  _60
REMARK   28  A    between atoms: _60  and  _61
REMARK   29  A    between atoms: _61  and  _62
REMARK   30  A    between atoms: _71  and  _73
REMARK   31  A    between atoms: _73  and  _74
REMARK   32  A    between atoms: _73  and  _76
REMARK   33  A    between atoms: _76  and  _77
REMARK   34  A    between atoms: _83  and  _85
REMARK   35  A    between atoms: _85  and  _86
REMARK   36  A    between atoms: _85  and  _88
REMARK   37  A    between atoms: _88  and  _89
REMARK   38  A    between atoms: _94  and  _96
REMARK   39  A    between atoms: _96  and  _97
REMARK   40  A    between atoms: _96  and  _99
REMARK   41  A    between atoms: _99  and  _100
REMARK   42  A    between atoms: _100  and  _101
REMARK   43  A    between atoms: _103  and  _105
REMARK   44  A    between atoms: _105  and  _106
REMARK   45  A    between atoms: _105  and  _108
REMARK   46  A    between atoms: _108  and  _109
REMARK   47  A    between atoms: _114  and  _115
REMARK   48  A    between atoms: _117  and  _119
REMARK   49  A    between atoms: _119  and  _120
REMARK   50  A    between atoms: _119  and  _122
REMARK   51  A    between atoms: _122  and  _123
REMARK   52  A    between atoms: _123  and  _124
REMARK   53  A    between atoms: _127  and  _129
REMARK   54  A    between atoms: _129  and  _130
REMARK   55  A    between atoms: _129  and  _132
REMARK   56  A    between atoms: _132  and  _133
REMARK   57  A    between atoms: _136  and  _138
REMARK   58  A    between atoms: _138  and  _139
REMARK   59  A    between atoms: _138  and  _141
REMARK   60  A    between atoms: _141  and  _142
REMARK   61  A    between atoms: _147  and  _149
REMARK   62  A    between atoms: _149  and  _150
REMARK   63  A    between atoms: _153  and  _155
REMARK   64  A    between atoms: _155  and  _156
REMARK   65  A    between atoms: _159  and  _161
REMARK   66  A    between atoms: _161  and  _162
REMARK   67  A    between atoms: _164  and  _166
REMARK   68  A    between atoms: _166  and  _167
REMARK   69  A    between atoms: _169  and  _171
REMARK   70  A    between atoms: _171  and  _172
REMARK   71  A    between atoms: _171  and  _174
REMARK   72  A    between atoms: _174  and  _175
REMARK   73  A    between atoms: _178  and  _180
REMARK   74  A    between atoms: _180  and  _181
REMARK   75  A    between atoms: _180  and  _183
REMARK   76  A    between atoms: _183  and  _184
REMARK   77  A    between atoms: _189  and  _190
REMARK   78  A    between atoms: _192  and  _194
REMARK   79  A    between atoms: _194  and  _195
REMARK   80  A    between atoms: _194  and  _197
REMARK   81  A    between atoms: _200  and  _202
REMARK   82  A    between atoms: _202  and  _203
REMARK   83  A    between atoms: _202  and  _205
REMARK   84  A    between atoms: _205  and  _206
REMARK   85  A    between atoms: _206  and  _207
REMARK   86  A    between atoms: _209  and  _211
REMARK   87  A    between atoms: _211  and  _212
REMARK   88  A    between atoms: _211  and  _214
REMARK   89  A    between atoms: _214  and  _215
REMARK   90  A    between atoms: _218  and  _220
REMARK   91  A    between atoms: _220  and  _221
REMARK   92  A    between atoms: _223  and  _225
REMARK   93  A    between atoms: _225  and  _226
REMARK   94  A    between atoms: _229  and  _230
REMARK   95  A    between atoms: _235  and  _237
REMARK   96  A    between atoms: _237  and  _238
REMARK   97  A    between atoms: _237  and  _240
REMARK   98  A    between atoms: _240  and  _241
REMARK   99  A    between atoms: _246  and  _248
REMARK  100  A    between atoms: _248  and  _249
REMARK  101  A    between atoms: _248  and  _251
REMARK  102  A    between atoms: _251  and  _252
REMARK  103  A    between atoms: _258  and  _260
REMARK  104  A    between atoms: _260  and  _261
REMARK  105  A    between atoms: _260  and  _263
REMARK  106  A    between atoms: _263  and  _264
REMARK  107  A    between atoms: _264  and  _265
REMARK  108  A    between atoms: _268  and  _270
REMARK  109  A    between atoms: _270  and  _271
REMARK  110  A    between atoms: _270  and  _273
REMARK  111  A    between atoms: _275  and  _277
REMARK  112  A    between atoms: _277  and  _278
REMARK  113  A    between atoms: _277  and  _280
REMARK  114  A    between atoms: _280  and  _281
REMARK  115  A    between atoms: _284  and  _286
REMARK  116  A    between atoms: _286  and  _287
REMARK  117  A    between atoms: _290  and  _292
REMARK  118  A    between atoms: _292  and  _293
REMARK  119  A    between atoms: _292  and  _295
REMARK  120  A    between atoms: _298  and  _300
REMARK  121  A    between atoms: _300  and  _301
REMARK  122  A    between atoms: _303  and  _305
REMARK  123  A    between atoms: _305  and  _306
REMARK  124  A    between atoms: _305  and  _308
REMARK  125  A    between atoms: _308  and  _309
REMARK  126  A    between atoms: _309  and  _310
REMARK  127  A    between atoms: _312  and  _314
REMARK  128  A    between atoms: _314  and  _315
REMARK  129  A    between atoms: _314  and  _317
REMARK  130  A    between atoms: _317  and  _318
REMARK  131  A    between atoms: _320  and  _322
REMARK  132  A    between atoms: _322  and  _323
REMARK  133  A    between atoms: _322  and  _325
REMARK  134  A    between atoms: _325  and  _326
REMARK  135  A    between atoms: _329  and  _331
REMARK  136  A    between atoms: _331  and  _332
REMARK  137  A    between atoms: _331  and  _334
REMARK  138  A    between atoms: _337  and  _339
REMARK  139  A    between atoms: _339  and  _340
REMARK  140  A    between atoms: _339  and  _342
REMARK  141  A    between atoms: _342  and  _343
REMARK  142  A    between atoms: _343  and  _344
REMARK  143  A    between atoms: _347  and  _349
REMARK  144  A    between atoms: _349  and  _350
REMARK  145  A    between atoms: _349  and  _352
REMARK  146  A    between atoms: _352  and  _353
REMARK  147  A    between atoms: _359  and  _361
REMARK  148  A    between atoms: _361  and  _362
REMARK  149  A    between atoms: _361  and  _364
REMARK  150  A    between atoms: _364  and  _365
REMARK  151  A    between atoms: _367  and  _369
REMARK  152  A    between atoms: _369  and  _370
REMARK  153  A    between atoms: _369  and  _372
REMARK  154  A    between atoms: _372  and  _373
REMARK  155  A    between atoms: _376  and  _378
REMARK  156  A    between atoms: _378  and  _379
REMARK  157  A    between atoms: _378  and  _381
REMARK  158  A    between atoms: _381  and  _382
REMARK  159  A    between atoms: _385  and  _387
REMARK  160  A    between atoms: _387  and  _388
REMARK  161  A    between atoms: _387  and  _390
REMARK  162  A    between atoms: _390  and  _391
REMARK  163  A    between atoms: _394  and  _396
REMARK  164  A    between atoms: _396  and  _397
REMARK  165  A    between atoms: _396  and  _399
REMARK  166  A    between atoms: _399  and  _400
REMARK  167  A    between atoms: _405  and  _407
REMARK  168  A    between atoms: _407  and  _408
REMARK  169  A    between atoms: _407  and  _410
REMARK  170  A    between atoms: _410  and  _411
REMARK  171  A    between atoms: _411  and  _412
REMARK  172  A    between atoms: _412  and  _413
REMARK  173  A    between atoms: _413  and  _414
REMARK  174  A    between atoms: _418  and  _420
REMARK  175  A    between atoms: _420  and  _421
REMARK  176  A    between atoms: _420  and  _423
REMARK  177  A    between atoms: _426  and  _428
REMARK  178  A    between atoms: _428  and  _429
REMARK  179  A    between atoms: _428  and  _431
REMARK  180  A    between atoms: _431  and  _432
REMARK  181  A    between atoms: _435  and  _437
REMARK  182  A    between atoms: _437  and  _438
REMARK  183  A    between atoms: _441  and  _443
REMARK  184  A    between atoms: _443  and  _444
REMARK  185  A    between atoms: _443  and  _446
REMARK  186  A    between atoms: _446  and  _447
REMARK  187  A    between atoms: _452  and  _454
REMARK  188  A    between atoms: _454  and  _455
REMARK  189  A    between atoms: _454  and  _457
REMARK  190  A    between atoms: _457  and  _458
REMARK  191  A    between atoms: _463  and  _465
REMARK  192  A    between atoms: _465  and  _466
REMARK  193  A    between atoms: _465  and  _468
REMARK  194  A    between atoms: _468  and  _469
REMARK  195  A    between atoms: _469  and  _470
REMARK  196  A    between atoms: _473  and  _475
REMARK  197  A    between atoms: _475  and  _476
REMARK  198  A    between atoms: _475  and  _478
REMARK  199  A    between atoms: _481  and  _483
REMARK  200  A    between atoms: _483  and  _484
REMARK  201  A    between atoms: _483  and  _486
REMARK  202  A    between atoms: _486  and  _487
REMARK  203  A    between atoms: _490  and  _492
REMARK  204  A    between atoms: _492  and  _493
REMARK  205  A    between atoms: _492  and  _495
REMARK  206  A    between atoms: _495  and  _496
REMARK  207  A    between atoms: _496  and  _497
REMARK  208  A    between atoms: _497  and  _498
REMARK  209  A    between atoms: _507  and  _509
REMARK  210  A    between atoms: _509  and  _510
REMARK  211  A    between atoms: _509  and  _512
REMARK  212  A    between atoms: _512  and  _513
REMARK                            x       y       z     vdW  Elec       q    Type
REMARK                         _______ _______ _______ _____ _____    ______ ____
ROOT
ATOM      1  CA  CYS A   1      28.110  -0.988  36.642  0.00  0.00    +0.145 C 
ENDROOT
BRANCH   1   2
ATOM      2  N   CYS A   1      27.900   0.220  35.849  0.00  0.00    -0.238 NA
ATOM      3  H   CYS A   1      28.684   0.879  35.667  0.00  0.00    +0.142 HD
ENDBRANCH   1   2
BRANCH   1   4
ATOM      4  C   CYS A   1      27.276  -0.976  37.900  0.00  0.00    +0.225 C 
ATOM      5  O   CYS A   1      26.668  -1.994  38.253  0.00  0.00    -0.287 OA
ENDBRANCH   1   4
BRANCH   1   6
ATOM      6  CB  CYS A   1      29.588  -1.072  36.988  0.00  0.00    +0.094 C 
ATOM      7  SG  CYS A   1      30.574  -1.556  35.561  0.00  0.00    -0.080 S 
ENDBRANCH   1   6
TORSDOF 3
REMARK  Name = ../refined-set-2016/3fuc/3fuc_pocket.pdb
REMARK  212 active torsions:
REMARK  status: ('A' for Active; 'I' for Inactive)
REMARK    1  A    between atoms: _1  and  _3
REMARK    2  A    between atoms: _3  and  _4
REMARK    3  A    between atoms: _3  and  _6
REMARK    4  A    between atoms: _6  and  _7
REMARK    5  A    between atoms: _10  and  _12
REMARK    6  A    between atoms: _12  and  _13
REMARK    7  A    between atoms: _12  and  _15
REMARK    8  A    between atoms: _17  and  _19
REMARK    9  A    between atoms: _19  and  _20
REMARK   10  A    between atoms: _22  and  _24
REMARK   11  A    between atoms: _24  and  _25
REMARK   12  A    between atoms: _24  and  _27
REMARK   13  A    between atoms: _27  and  _28
REMARK   14  A    between atoms: _30  and  _32
REMARK   15  A    between atoms: _32  and  _33
REMARK   16  A    between atoms: _35  and  _37
REMARK   17  A    between atoms: _37  and  _38
REMARK   18  A    between atoms: _37  and  _40
REMARK   19  A    between atoms: _40  and  _41
REMARK   20  A    between atoms: _44  and  _46
REMARK   21  A    between atoms: _46  and  _47
REMARK   22  A    between atoms: _49  and  _51
REMARK   23  A    between atoms: _51  and  _52
REMARK   24  A    between atoms: _54  and  _56
REMARK   25  A    between atoms: _56  and  _57
REMARK   26  A    between atoms: _56  and  _59
REMARK   27  A    between atoms: _59  and  _60
REMARK   28  A    between atoms: _60  and  _61
REMARK   29  A    between atoms: _61  and  _62
REMARK   30  A    between atoms: _71  and  _73
REMARK   31  A    between atoms: _73  and  _74
REMARK   32  A    between atoms: _73  and  _76
REMARK   33  A    between atoms: _76  and  _77
REMARK   34  A    between atoms: _83  and  _85
REMARK   35  A    between atoms: _85  and  _86
REMARK   36  A    between atoms: _85  and  _88
REMARK   37  A    between atoms: _88  and  _89
REMARK   38  A    between atoms: _94  and  _96
REMARK   39  A    between atoms: _96  and  _97
REMARK   40  A    between atoms: _96  and  _99
REMARK   41  A    between atoms: _99  and  _100
REMARK   42  A    between atoms: _100  and  _101
REMARK   43  A    between atoms: _103  and  _105
REMARK   44  A    between atoms: _105  and  _106
REMARK   45  A    between atoms: _105  and  _108
REMARK   46  A    between atoms: _108  and  _109
REMARK   47  A    between atoms: _114  and  _115
REMARK   48  A    between atoms: _117  and  _119
REMARK   49  A    between atoms: _119  and  _120
REMARK   50  A    between atoms: _119  and  _122
REMARK   51  A    between atoms: _122  and  _123
REMARK   52  A    between atoms: _123  and  _124
REMARK   53  A    between atoms: _127  and  _129
REMARK   54  A    between atoms: _129  and  _130
REMARK   55  A    between atoms: _129  and  _132
REMARK   56  A    between atoms: _132  and  _133
REMARK   57  A    between atoms: _136  and  _138
REMARK   58  A    between atoms: _138  and  _139
REMARK   59  A    between atoms: _138  and  _141
REMARK   60  A    between atoms: _141  and  _142
REMARK   61  A    between atoms: _147  and  _149
REMARK   62  A    between atoms: _149  and  _150
REMARK   63  A    between atoms: _153  and  _155
REMARK   64  A    between atoms: _155  and  _156
REMARK   65  A    between atoms: _159  and  _161
REMARK   66  A    between atoms: _161  and  _162
REMARK   67  A    between atoms: _164  and  _166
REMARK   68  A    between atoms: _166  and  _167
REMARK   69  A    between atoms: _169  and  _171
REMARK   70  A    between atoms: _171  and  _172
REMARK   71  A    between atoms: _171  and  _174
REMARK   72  A    between atoms: _174  and  _175
REMARK   73  A    between atoms: _178  and  _180
REMARK   74  A    between atoms: _180  and  _181
REMARK   75  A    between atoms: _180  and  _183
REMARK   76  A    between atoms: _183  and  _184
REMARK   77  A    between atoms: _189  and  _190
REMARK   78  A    between atoms: _192  and  _194
REMARK   79  A    between atoms: _194  and  _195
REMARK   80  A    between atoms: _194  and  _197
REMARK   81  A    between atoms: _200  and  _202
REMARK   82  A    between atoms: _202  and  _203
REMARK   83  A    between atoms: _202  and  _205
REMARK   84  A    between atoms: _205  and  _206
REMARK   85  A    between atoms: _206  and  _207
REMARK   86  A    between atoms: _209  and  _211
REMARK   87  A    between atoms: _211  and  _212
REMARK   88  A    between atoms: _211  and  _214
REMARK   89  A    between atoms: _214  and  _215
REMARK   90  A    between atoms: _218  and  _220
REMARK   91  A    between atoms: _220  and  _221
REMARK   92  A    between atoms: _223  and  _225
REMARK   93  A    between atoms: _225  and  _226
REMARK   94  A    between atoms: _229  and  _230
REMARK   95  A    between atoms: _235  and  _237
REMARK   96  A    between atoms: _237  and  _238
REMARK   97  A    between atoms: _237  and  _240
REMARK   98  A    between atoms: _240  and  _241
REMARK   99  A    between atoms: _246  and  _248
REMARK  100  A    between atoms: _248  and  _249
REMARK  101  A    between atoms: _248  and  _251
REMARK  102  A    between atoms: _251  and  _252
REMARK  103  A    between atoms: _258  and  _260
REMARK  104  A    between atoms: _260  and  _261
REMARK  105  A    between atoms: _260  and  _263
REMARK  106  A    between atoms: _263  and  _264
REMARK  107  A    between atoms: _264  and  _265
REMARK  108  A    between atoms: _268  and  _270
REMARK  109  A    between atoms: _270  and  _271
REMARK  110  A    between atoms: _270  and  _273
REMARK  111  A    between atoms: _275  and  _277
REMARK  112  A    between atoms: _277  and  _278
REMARK  113  A    between atoms: _277  and  _280
REMARK  114  A    between atoms: _280  and  _281
REMARK  115  A    between atoms: _284  and  _286
REMARK  116  A    between atoms: _286  and  _287
REMARK  117  A    between atoms: _290  and  _292
REMARK  118  A    between atoms: _292  and  _293
REMARK  119  A    between atoms: _292  and  _295
REMARK  120  A    between atoms: _298  and  _300
REMARK  121  A    between atoms: _300  and  _301
REMARK  122  A    between atoms: _303  and  _305
REMARK  123  A    between atoms: _305  and  _306
REMARK  124  A    between atoms: _305  and  _308
REMARK  125  A    between atoms: _308  and  _309
REMARK  126  A    between atoms: _309  and  _310
REMARK  127  A    between atoms: _312  and  _314
REMARK  128  A    between atoms: _314  and  _315
REMARK  129  A    between atoms: _314  and  _317
REMARK  130  A    between atoms: _317  and  _318
REMARK  131  A    between atoms: _320  and  _322
REMARK  132  A    between atoms: _322  and  _323
REMARK  133  A    between atoms: _322  and  _325
REMARK  134  A    between atoms: _325  and  _326
REMARK  135  A    between atoms: _329  and  _331
REMARK  136  A    between atoms: _331  and  _332
REMARK  137  A    between atoms: _331  and  _334
REMARK  138  A    between atoms: _337  and  _339
REMARK  139  A    between atoms: _339  and  _340
REMARK  140  A    between atoms: _339  and  _342
REMARK  141  A    between atoms: _342  and  _343
REMARK  142  A    between atoms: _343  and  _344
REMARK  143  A    between atoms: _347  and  _349
REMARK  144  A    between atoms: _349  and  _350
REMARK  145  A    between atoms: _349  and  _352
REMARK  146  A    between atoms: _352  and  _353
REMARK  147  A    between atoms: _359  and  _361
REMARK  148  A    between atoms: _361  and  _362
REMARK  149  A    between atoms: _361  and  _364
REMARK  150  A    between atoms: _364  and  _365
REMARK  151  A    between atoms: _367  and  _369
REMARK  152  A    between atoms: _369  and  _370
REMARK  153  A    between atoms: _369  and  _372
REMARK  154  A    between atoms: _372  and  _373
REMARK  155  A    between atoms: _376  and  _378
REMARK  156  A    between atoms: _378  and  _379
REMARK  157  A    between atoms: _378  and  _381
REMARK  158  A    between atoms: _381  and  _382
REMARK  159  A    between atoms: _385  and  _387
REMARK  160  A    between atoms: _387  and  _388
REMARK  161  A    between atoms: _387  and  _390
REMARK  162  A    between atoms: _390  and  _391
REMARK  163  A    between atoms: _394  and  _396
REMARK  164  A    between atoms: _396  and  _397
REMARK  165  A    between atoms: _396  and  _399
REMARK  166  A    between atoms: _399  and  _400
REMARK  167  A    between atoms: _405  and  _407
REMARK  168  A    between atoms: _407  and  _408
REMARK  169  A    between atoms: _407  and  _410
REMARK  170  A    between atoms: _410  and  _411
REMARK  171  A    between atoms: _411  and  _412
REMARK  172  A    between atoms: _412  and  _413
REMARK  173  A    between atoms: _413  and  _414
REMARK  174  A    between atoms: _418  and  _420
REMARK  175  A    between atoms: _420  and  _421
REMARK  176  A    between atoms: _420  and  _423
REMARK  177  A    between atoms: _426  and  _428
REMARK  178  A    between atoms: _428  and  _429
REMARK  179  A    between atoms: _428  and  _431
REMARK  180  A    between atoms: _431  and  _432
REMARK  181  A    between atoms: _435  and  _437
REMARK  182  A    between atoms: _437  and  _438
REMARK  183  A    between atoms: _441  and  _443
REMARK  184  A    between atoms: _443  and  _444
REMARK  185  A    between atoms: _443  and  _446
REMARK  186  A    between atoms: _446  and  _447
REMARK  187  A    between atoms: _452  and  _454
REMARK  188  A    between atoms: _454  and  _455
REMARK  189  A    between atoms: _454  and  _457
REMARK  190  A    between atoms: _457  and  _458
REMARK  191  A    between atoms: _463  and  _465
REMARK  192  A    between atoms: _465  and  _466
REMARK  193  A    between atoms: _465  and  _468
REMARK  194  A    between atoms: _468  and  _469
REMARK  195  A    between atoms: _469  and  _470
REMARK  196  A    between atoms: _473  and  _475
REMARK  197  A    between atoms: _475  and  _476
REMARK  198  A    between atoms: _475  and  _478
REMARK  199  A    between atoms: _481  and  _483
REMARK  200  A    between atoms: _483  and  _484
REMARK  201  A    between atoms: _483  and  _486
REMARK  202  A    between atoms: _486  and  _487
REMARK  203  A    between atoms: _490  and  _492
REMARK  204  A    between atoms: _492  and  _493
REMARK  205  A    between atoms: _492  and  _495
REMARK  206  A    between atoms: _495  and  _496
REMARK  207  A    between atoms: _496  and  _497
REMARK  208  A    between atoms: _497  and  _498
REMARK  209  A    between atoms: _507  and  _509
REMARK  210  A    between atoms: _509  and  _510
REMARK  211  A    between atoms: _509  and  _512
REMARK  212  A    between atoms: _512  and  _513
REMARK                            x       y       z     vdW  Elec       q    Type
REMARK                         _______ _______ _______ _____ _____    ______ ____
ROOT
ATOM      1  CA  LEU A   1      23.395  -3.060  36.609  0.00  0.00    +0.133 C 
ENDROOT
BRANCH   1   2
ATOM      2  N   LEU A   1      23.633  -1.666  37.022  0.00  0.00    -0.239 NA
ATOM      3  H   LEU A   1      24.504  -1.172  36.741  0.00  0.00    +0.142 HD
ENDBRANCH   1   2
BRANCH   1   4
ATOM      4  C   LEU A   1      23.387  -3.997  37.820  0.00  0.00    +0.224 C 
ATOM      5  O   LEU A   1      22.571  -4.920  37.874  0.00  0.00    -0.287 OA
ENDBRANCH   1   4
BRANCH   1   6
ATOM      6  CB  LEU A   1      24.421  -3.535  35.587  0.00  0.00    +0.025 C 
BRANCH   6   7
ATOM      7  CG  LEU A   1      24.382  -2.815  34.227  0.00  0.00    +0.002 C 
ATOM      8  CD2 LEU A   1      23.091  -3.152  33.439  0.00  0.00    +0.000 C 
ATOM      9  CD1 LEU A   1      25.624  -3.090  33.435  0.00  0.00    +0.000 C 
ENDBRANCH   6   7
ENDBRANCH   1   6
TORSDOF 4
REMARK  Name = ../refined-set-2016/3fuc/3fuc_pocket.pdb
REMARK  212 active torsions:
REMARK  status: ('A' for Active; 'I' for Inactive)
REMARK    1  A    between atoms: _1  and  _3
REMARK    2  A    between atoms: _3  and  _4
REMARK    3  A    between atoms: _3  and  _6
REMARK    4  A    between atoms: _6  and  _7
REMARK    5  A    between atoms: _10  and  _12
REMARK    6  A    between atoms: _12  and  _13
REMARK    7  A    between atoms: _12  and  _15
REMARK    8  A    between atoms: _17  and  _19
REMARK    9  A    between atoms: _19  and  _20
REMARK   10  A    between atoms: _22  and  _24
REMARK   11  A    between atoms: _24  and  _25
REMARK   12  A    between atoms: _24  and  _27
REMARK   13  A    between atoms: _27  and  _28
REMARK   14  A    between atoms: _30  and  _32
REMARK   15  A    between atoms: _32  and  _33
REMARK   16  A    between atoms: _35  and  _37
REMARK   17  A    between atoms: _37  and  _38
REMARK   18  A    between atoms: _37  and  _40
REMARK   19  A    between atoms: _40  and  _41
REMARK   20  A    between atoms: _44  and  _46
REMARK   21  A    between atoms: _46  and  _47
REMARK   22  A    between atoms: _49  and  _51
REMARK   23  A    between atoms: _51  and  _52
REMARK   24  A    between atoms: _54  and  _56
REMARK   25  A    between atoms: _56  and  _57
REMARK   26  A    between atoms: _56  and  _59
REMARK   27  A    between atoms: _59  and  _60
REMARK   28  A    between atoms: _60  and  _61
REMARK   29  A    between atoms: _61  and  _62
REMARK   30  A    between atoms: _71  and  _73
REMARK   31  A    between atoms: _73  and  _74
REMARK   32  A    between atoms: _73  and  _76
REMARK   33  A    between atoms: _76  and  _77
REMARK   34  A    between atoms: _83  and  _85
REMARK   35  A    between atoms: _85  and  _86
REMARK   36  A    between atoms: _85  and  _88
REMARK   37  A    between atoms: _88  and  _89
REMARK   38  A    between atoms: _94  and  _96
REMARK   39  A    between atoms: _96  and  _97
REMARK   40  A    between atoms: _96  and  _99
REMARK   41  A    between atoms: _99  and  _100
REMARK   42  A    between atoms: _100  and  _101
REMARK   43  A    between atoms: _103  and  _105
REMARK   44  A    between atoms: _105  and  _106
REMARK   45  A    between atoms: _105  and  _108
REMARK   46  A    between atoms: _108  and  _109
REMARK   47  A    between atoms: _114  and  _115
REMARK   48  A    between atoms: _117  and  _119
REMARK   49  A    between atoms: _119  and  _120
REMARK   50  A    between atoms: _119  and  _122
REMARK   51  A    between atoms: _122  and  _123
REMARK   52  A    between atoms: _123  and  _124
REMARK   53  A    between atoms: _127  and  _129
REMARK   54  A    between atoms: _129  and  _130
REMARK   55  A    between atoms: _129  and  _132
REMARK   56  A    between atoms: _132  and  _133
REMARK   57  A    between atoms: _136  and  _138
REMARK   58  A    between atoms: _138  and  _139
REMARK   59  A    between atoms: _138  and  _141
REMARK   60  A    between atoms: _141  and  _142
REMARK   61  A    between atoms: _147  and  _149
REMARK   62  A    between atoms: _149  and  _150
REMARK   63  A    between atoms: _153  and  _155
REMARK   64  A    between atoms: _155  and  _156
REMARK   65  A    between atoms: _159  and  _161
REMARK   66  A    between atoms: _161  and  _162
REMARK   67  A    between atoms: _164  and  _166
REMARK   68  A    between atoms: _166  and  _167
REMARK   69  A    between atoms: _169  and  _171
REMARK   70  A    between atoms: _171  and  _172
REMARK   71  A    between atoms: _171  and  _174
REMARK   72  A    between atoms: _174  and  _175
REMARK   73  A    between atoms: _178  and  _180
REMARK   74  A    between atoms: _180  and  _181
REMARK   75  A    between atoms: _180  and  _183
REMARK   76  A    between atoms: _183  and  _184
REMARK   77  A    between atoms: _189  and  _190
REMARK   78  A    between atoms: _192  and  _194
REMARK   79  A    between atoms: _194  and  _195
REMARK   80  A    between atoms: _194  and  _197
REMARK   81  A    between atoms: _200  and  _202
REMARK   82  A    between atoms: _202  and  _203
REMARK   83  A    between atoms: _202  and  _205
REMARK   84  A    between atoms: _205  and  _206
REMARK   85  A    between atoms: _206  and  _207
REMARK   86  A    between atoms: _209  and  _211
REMARK   87  A    between atoms: _211  and  _212
REMARK   88  A    between atoms: _211  and  _214
REMARK   89  A    between atoms: _214  and  _215
REMARK   90  A    between atoms: _218  and  _220
REMARK   91  A    between atoms: _220  and  _221
REMARK   92  A    between atoms: _223  and  _225
REMARK   93  A    between atoms: _225  and  _226
REMARK   94  A    between atoms: _229  and  _230
REMARK   95  A    between atoms: _235  and  _237
REMARK   96  A    between atoms: _237  and  _238
REMARK   97  A    between atoms: _237  and  _240
REMARK   98  A    between atoms: _240  and  _241
REMARK   99  A    between atoms: _246  and  _248
REMARK  100  A    between atoms: _248  and  _249
REMARK  101  A    between atoms: _248  and  _251
REMARK  102  A    between atoms: _251  and  _252
REMARK  103  A    between atoms: _258  and  _260
REMARK  104  A    between atoms: _260  and  _261
REMARK  105  A    between atoms: _260  and  _263
REMARK  106  A    between atoms: _263  and  _264
REMARK  107  A    between atoms: _264  and  _265
REMARK  108  A    between atoms: _268  and  _270
REMARK  109  A    between atoms: _270  and  _271
REMARK  110  A    between atoms: _270  and  _273
REMARK  111  A    between atoms: _275  and  _277
REMARK  112  A    between atoms: _277  and  _278
REMARK  113  A    between atoms: _277  and  _280
REMARK  114  A    between atoms: _280  and  _281
REMARK  115  A    between atoms: _284  and  _286
REMARK  116  A    between atoms: _286  and  _287
REMARK  117  A    between atoms: _290  and  _292
REMARK  118  A    between atoms: _292  and  _293
REMARK  119  A    between atoms: _292  and  _295
REMARK  120  A    between atoms: _298  and  _300
REMARK  121  A    between atoms: _300  and  _301
REMARK  122  A    between atoms: _303  and  _305
REMARK  123  A    between atoms: _305  and  _306
REMARK  124  A    between atoms: _305  and  _308
REMARK  125  A    between atoms: _308  and  _309
REMARK  126  A    between atoms: _309  and  _310
REMARK  127  A    between atoms: _312  and  _314
REMARK  128  A    between atoms: _314  and  _315
REMARK  129  A    between atoms: _314  and  _317
REMARK  130  A    between atoms: _317  and  _318
REMARK  131  A    between atoms: _320  and  _322
REMARK  132  A    between atoms: _322  and  _323
REMARK  133  A    between atoms: _322  and  _325
REMARK  134  A    between atoms: _325  and  _326
REMARK  135  A    between atoms: _329  and  _331
REMARK  136  A    between atoms: _331  and  _332
REMARK  137  A    between atoms: _331  and  _334
REMARK  138  A    between atoms: _337  and  _339
REMARK  139  A    between atoms: _339  and  _340
REMARK  140  A    between atoms: _339  and  _342
REMARK  141  A    between atoms: _342  and  _343
REMARK  142  A    between atoms: _343  and  _344
REMARK  143  A    between atoms: _347  and  _349
REMARK  144  A    between atoms: _349  and  _350
REMARK  145  A    between atoms: _349  and  _352
REMARK  146  A    between atoms: _352  and  _353
REMARK  147  A    between atoms: _359  and  _361
REMARK  148  A    between atoms: _361  and  _362
REMARK  149  A    between atoms: _361  and  _364
REMARK  150  A    between atoms: _364  and  _365
REMARK  151  A    between atoms: _367  and  _369
REMARK  152  A    between atoms: _369  and  _370
REMARK  153  A    between atoms: _369  and  _372
REMARK  154  A    between atoms: _372  and  _373
REMARK  155  A    between atoms: _376  and  _378
REMARK  156  A    between atoms: _378  and  _379
REMARK  157  A    between atoms: _378  and  _381
REMARK  158  A    between atoms: _381  and  _382
REMARK  159  A    between atoms: _385  and  _387
REMARK  160  A    between atoms: _387  and  _388
REMARK  161  A    between atoms: _387  and  _390
REMARK  162  A    between atoms: _390  and  _391
REMARK  163  A    between atoms: _394  and  _396
REMARK  164  A    between atoms: _396  and  _397
REMARK  165  A    between atoms: _396  and  _399
REMARK  166  A    between atoms: _399  and  _400
REMARK  167  A    between atoms: _405  and  _407
REMARK  168  A    between atoms: _407  and  _408
REMARK  169  A    between atoms: _407  and  _410
REMARK  170  A    between atoms: _410  and  _411
REMARK  171  A    between atoms: _411  and  _412
REMARK  172  A    between atoms: _412  and  _413
REMARK  173  A    between atoms: _413  and  _414
REMARK  174  A    between atoms: _418  and  _420
REMARK  175  A    between atoms: _420  and  _421
REMARK  176  A    between atoms: _420  and  _423
REMARK  177  A    between atoms: _426  and  _428
REMARK  178  A    between atoms: _428  and  _429
REMARK  179  A    between atoms: _428  and  _431
REMARK  180  A    between atoms: _431  and  _432
REMARK  181  A    between atoms: _435  and  _437
REMARK  182  A    between atoms: _437  and  _438
REMARK  183  A    between atoms: _441  and  _443
REMARK  184  A    between atoms: _443  and  _444
REMARK  185  A    between atoms: _443  and  _446
REMARK  186  A    between atoms: _446  and  _447
REMARK  187  A    between atoms: _452  and  _454
REMARK  188  A    between atoms: _454  and  _455
REMARK  189  A    between atoms: _454  and  _457
REMARK  190  A    between atoms: _457  and  _458
REMARK  191  A    between atoms: _463  and  _465
REMARK  192  A    between atoms: _465  and  _466
REMARK  193  A    between atoms: _465  and  _468
REMARK  194  A    between atoms: _468  and  _469
REMARK  195  A    between atoms: _469  and  _470
REMARK  196  A    between atoms: _473  and  _475
REMARK  197  A    between atoms: _475  and  _476
REMARK  198  A    between atoms: _475  and  _478
REMARK  199  A    between atoms: _481  and  _483
REMARK  200  A    between atoms: _483  and  _484
REMARK  201  A    between atoms: _483  and  _486
REMARK  202  A    between atoms: _486  and  _487
REMARK  203  A    between atoms: _490  and  _492
REMARK  204  A    between atoms: _492  and  _493
REMARK  205  A    between atoms: _492  and  _495
REMARK  206  A    between atoms: _495  and  _496
REMARK  207  A    between atoms: _496  and  _497
REMARK  208  A    between atoms: _497  and  _498
REMARK  209  A    between atoms: _507  and  _509
REMARK  210  A    between atoms: _509  and  _510
REMARK  211  A    between atoms: _509  and  _512
REMARK  212  A    between atoms: _512  and  _513
REMARK                            x       y       z     vdW  Elec       q    Type
REMARK                         _______ _______ _______ _____ _____    ______ ____
ROOT
ATOM      1  C   MET A   4      26.866 -10.192  24.275  0.00  0.00    +0.241 C 
ATOM      2  N   SER A   5      26.477 -11.347  24.804  0.00  0.00    -0.295 N 
ATOM      3  H   SER A   5      26.521 -11.479  25.835  0.00  0.00    +0.150 HD
ATOM      4  O   MET A   4      26.778  -9.973  23.066  0.00  0.00    -0.273 OA
ENDROOT
BRANCH   2   5
ATOM      5  CA  SER A   5      25.986 -12.440  23.953  0.00  0.00    +0.178 C 
BRANCH   5   6
ATOM      6  C   SER A   5      24.918 -13.271  24.651  0.00  0.00    +0.243 C 
ATOM      7  O   SER A   5      24.350 -12.833  25.643  0.00  0.00    -0.273 OA
ATOM      8  N   THR A   6      24.658 -14.469  24.132  0.00  0.00    -0.295 N 
ATOM      9  H   THR A   6      24.955 -14.630  23.148  0.00  0.00    +0.150 HD
BRANCH   8  10
ATOM     10  CA  THR A   6      23.987 -15.594  24.821  0.00  0.00    +0.176 C 
BRANCH  10  11
ATOM     11  C   THR A   6      22.476 -15.495  24.925  0.00  0.00    +0.243 C 
ATOM     12  N   VAL A   7      22.018 -14.391  25.518  0.00  0.00    -0.298 N 
ATOM     13  H   VAL A   7      22.685 -13.657  25.830  0.00  0.00    +0.150 HD
ATOM     14  O   THR A   6      21.752 -16.385  24.475  0.00  0.00    -0.273 OA
BRANCH  12  15
ATOM     15  CA  VAL A   7      20.594 -14.210  25.730  0.00  0.00    +0.137 C 
BRANCH  15  16
ATOM     16  CB  VAL A   7      20.350 -12.871  26.413  0.00  0.00    +0.026 C 
ATOM     17  CG2 VAL A   7      20.867 -12.942  27.854  0.00  0.00    +0.002 C 
ATOM     18  CG1 VAL A   7      18.862 -12.504  26.424  0.00  0.00    +0.002 C 
ENDBRANCH  15  16
BRANCH  15  19
ATOM     19  C   VAL A   7      19.720 -14.407  24.457  0.00  0.00    +0.227 C 
ATOM     20  O   VAL A   7      18.735 -15.086  24.554  0.00  0.00    -0.286 OA
ENDBRANCH  15  19
ENDBRANCH  12  15
ENDBRANCH  10  11
BRANCH  10  21
ATOM     21  CB  THR A   6      24.639 -15.819  26.211  0.00  0.00    +0.137 C 
ATOM     22  CG2 THR A   6      24.012 -17.003  26.921  0.00  0.00    +0.034 C 
BRANCH  21  23
ATOM     23  OG1 THR A   6      26.024 -16.174  26.011  0.00  0.00    -0.382 OA
ATOM     24  HG1 THR A   6      26.486 -15.440  25.534  0.00  0.00    +0.210 HD
ENDBRANCH  21  23
ENDBRANCH  10  21
ENDBRANCH   8  10
ENDBRANCH   5   6
BRANCH   5  25
ATOM     25  CB  SER A   5      27.166 -13.339  23.573  0.00  0.00    +0.166 C 
BRANCH  25  26
ATOM     26  OG  SER A   5      27.557 -14.114  24.694  0.00  0.00    -0.380 OA
ATOM     27  H   SER A   5      26.796 -14.676  24.987  0.00  0.00    +0.211 HD
ENDBRANCH  25  26
ENDBRANCH   5  25
ENDBRANCH   2   5
BRANCH   1  28
ATOM     28  CA  MET A   4      27.427  -9.118  25.199  0.00  0.00    +0.149 C 
BRANCH  28  31
ATOM     29  C   GLY A   3      27.446  -9.127  27.664  0.00  0.00    +0.243 C 
ATOM     30  O   GLY A   3      26.494  -8.330  27.763  0.00  0.00    -0.273 OA
ATOM     31  N   MET A   4      27.868  -9.639  26.502  0.00  0.00    -0.297 N 
ATOM     32  H   MET A   4      28.534 -10.437  26.521  0.00  0.00    +0.150 HD
BRANCH  29  33
ATOM     33  CA  GLY A   3      28.192  -9.594  28.901  0.00  0.00    +0.176 C 
BRANCH  33  36
ATOM     34  C   VAL A   2      28.223  -9.017  31.233  0.00  0.00    +0.241 C 
ATOM     35  O   VAL A   2      29.444  -9.200  31.298  0.00  0.00    -0.273 OA
ATOM     36  N   GLY A   3      27.521  -9.189  30.120  0.00  0.00    -0.295 N 
ATOM     37  H   GLY A   3      26.493  -9.034  30.123  0.00  0.00    +0.150 HD
BRANCH  34  38
ATOM     38  CA  VAL A   2      27.429  -8.588  32.462  0.00  0.00    +0.148 C 
BRANCH  38  41
ATOM     39  C   ALA A   1      26.981 -10.072  34.346  0.00  0.00    +0.238 C 
ATOM     40  O   ALA A   1      25.760 -10.127  34.125  0.00  0.00    -0.274 OA
ATOM     41  N   VAL A   2      27.859  -9.372  33.629  0.00  0.00    -0.297 N 
ATOM     42  H   VAL A   2      28.863  -9.380  33.899  0.00  0.00    +0.150 HD
BRANCH  39  43
ATOM     43  CA  ALA A   1      27.534 -10.801  35.574  0.00  0.00    +0.145 C 
ATOM     44  CB  ALA A   1      27.992 -12.219  35.229  0.00  0.00    +0.028 C 
BRANCH  43  45
ATOM     45  N   ALA A   1      26.509 -10.830  36.595  0.00  0.00    -0.238 NA
ATOM     46  H   ALA A   1      25.512 -10.908  36.309  0.00  0.00    +0.142 HD
ENDBRANCH  43  45
ENDBRANCH  39  43
ENDBRANCH  38  41
BRANCH  38  47
ATOM     47  CB  VAL A   2      27.546  -7.065  32.705  0.00  0.00    +0.027 C 
ATOM     48  CG2 VAL A   2      28.951  -6.623  33.129  0.00  0.00    +0.002 C 
ATOM     49  CG1 VAL A   2      27.133  -6.315  31.429  0.00  0.00    +0.002 C 
ENDBRANCH  38  47
ENDBRANCH  34  38
ENDBRANCH  33  36
ENDBRANCH  29  33
ENDBRANCH  28  31
BRANCH  28  50
ATOM     50  CB  MET A   4      28.618  -8.424  24.514  0.00  0.00    +0.041 C 
BRANCH  50  51
ATOM     51  CG  MET A   4      29.249  -7.327  25.337  0.00  0.00    +0.060 C 
BRANCH  51  52
ATOM     52  SD  MET A   4      30.679  -6.592  24.498  0.00  0.00    -0.139 S 
ATOM     53  CE  MET A   4      31.315  -5.535  25.788  0.00  0.00    +0.069 C 
ENDBRANCH  51  52
ENDBRANCH  50  51
ENDBRANCH  28  50
ENDBRANCH   1  28
TORSDOF 23
REMARK  Name = ../refined-set-2016/3fuc/3fuc_pocket.pdb
REMARK  212 active torsions:
REMARK  status: ('A' for Active; 'I' for Inactive)
REMARK    1  A    between atoms: _1  and  _3
REMARK    2  A    between atoms: _3  and  _4
REMARK    3  A    between atoms: _3  and  _6
REMARK    4  A    between atoms: _6  and  _7
REMARK    5  A    between atoms: _10  and  _12
REMARK    6  A    between atoms: _12  and  _13
REMARK    7  A    between atoms: _12  and  _15
REMARK    8  A    between atoms: _17  and  _19
REMARK    9  A    between atoms: _19  and  _20
REMARK   10  A    between atoms: _22  and  _24
REMARK   11  A    between atoms: _24  and  _25
REMARK   12  A    between atoms: _24  and  _27
REMARK   13  A    between atoms: _27  and  _28
REMARK   14  A    between atoms: _30  and  _32
REMARK   15  A    between atoms: _32  and  _33
REMARK   16  A    between atoms: _35  and  _37
REMARK   17  A    between atoms: _37  and  _38
REMARK   18  A    between atoms: _37  and  _40
REMARK   19  A    between atoms: _40  and  _41
REMARK   20  A    between atoms: _44  and  _46
REMARK   21  A    between atoms: _46  and  _47
REMARK   22  A    between atoms: _49  and  _51
REMARK   23  A    between atoms: _51  and  _52
REMARK   24  A    between atoms: _54  and  _56
REMARK   25  A    between atoms: _56  and  _57
REMARK   26  A    between atoms: _56  and  _59
REMARK   27  A    between atoms: _59  and  _60
REMARK   28  A    between atoms: _60  and  _61
REMARK   29  A    between atoms: _61  and  _62
REMARK   30  A    between atoms: _71  and  _73
REMARK   31  A    between atoms: _73  and  _74
REMARK   32  A    between atoms: _73  and  _76
REMARK   33  A    between atoms: _76  and  _77
REMARK   34  A    between atoms: _83  and  _85
REMARK   35  A    between atoms: _85  and  _86
REMARK   36  A    between atoms: _85  and  _88
REMARK   37  A    between atoms: _88  and  _89
REMARK   38  A    between atoms: _94  and  _96
REMARK   39  A    between atoms: _96  and  _97
REMARK   40  A    between atoms: _96  and  _99
REMARK   41  A    between atoms: _99  and  _100
REMARK   42  A    between atoms: _100  and  _101
REMARK   43  A    between atoms: _103  and  _105
REMARK   44  A    between atoms: _105  and  _106
REMARK   45  A    between atoms: _105  and  _108
REMARK   46  A    between atoms: _108  and  _109
REMARK   47  A    between atoms: _114  and  _115
REMARK   48  A    between atoms: _117  and  _119
REMARK   49  A    between atoms: _119  and  _120
REMARK   50  A    between atoms: _119  and  _122
REMARK   51  A    between atoms: _122  and  _123
REMARK   52  A    between atoms: _123  and  _124
REMARK   53  A    between atoms: _127  and  _129
REMARK   54  A    between atoms: _129  and  _130
REMARK   55  A    between atoms: _129  and  _132
REMARK   56  A    between atoms: _132  and  _133
REMARK   57  A    between atoms: _136  and  _138
REMARK   58  A    between atoms: _138  and  _139
REMARK   59  A    between atoms: _138  and  _141
REMARK   60  A    between atoms: _141  and  _142
REMARK   61  A    between atoms: _147  and  _149
REMARK   62  A    between atoms: _149  and  _150
REMARK   63  A    between atoms: _153  and  _155
REMARK   64  A    between atoms: _155  and  _156
REMARK   65  A    between atoms: _159  and  _161
REMARK   66  A    between atoms: _161  and  _162
REMARK   67  A    between atoms: _164  and  _166
REMARK   68  A    between atoms: _166  and  _167
REMARK   69  A    between atoms: _169  and  _171
REMARK   70  A    between atoms: _171  and  _172
REMARK   71  A    between atoms: _171  and  _174
REMARK   72  A    between atoms: _174  and  _175
REMARK   73  A    between atoms: _178  and  _180
REMARK   74  A    between atoms: _180  and  _181
REMARK   75  A    between atoms: _180  and  _183
REMARK   76  A    between atoms: _183  and  _184
REMARK   77  A    between atoms: _189  and  _190
REMARK   78  A    between atoms: _192  and  _194
REMARK   79  A    between atoms: _194  and  _195
REMARK   80  A    between atoms: _194  and  _197
REMARK   81  A    between atoms: _200  and  _202
REMARK   82  A    between atoms: _202  and  _203
REMARK   83  A    between atoms: _202  and  _205
REMARK   84  A    between atoms: _205  and  _206
REMARK   85  A    between atoms: _206  and  _207
REMARK   86  A    between atoms: _209  and  _211
REMARK   87  A    between atoms: _211  and  _212
REMARK   88  A    between atoms: _211  and  _214
REMARK   89  A    between atoms: _214  and  _215
REMARK   90  A    between atoms: _218  and  _220
REMARK   91  A    between atoms: _220  and  _221
REMARK   92  A    between atoms: _223  and  _225
REMARK   93  A    between atoms: _225  and  _226
REMARK   94  A    between atoms: _229  and  _230
REMARK   95  A    between atoms: _235  and  _237
REMARK   96  A    between atoms: _237  and  _238
REMARK   97  A    between atoms: _237  and  _240
REMARK   98  A    between atoms: _240  and  _241
REMARK   99  A    between atoms: _246  and  _248
REMARK  100  A    between atoms: _248  and  _249
REMARK  101  A    between atoms: _248  and  _251
REMARK  102  A    between atoms: _251  and  _252
REMARK  103  A    between atoms: _258  and  _260
REMARK  104  A    between atoms: _260  and  _261
REMARK  105  A    between atoms: _260  and  _263
REMARK  106  A    between atoms: _263  and  _264
REMARK  107  A    between atoms: _264  and  _265
REMARK  108  A    between atoms: _268  and  _270
REMARK  109  A    between atoms: _270  and  _271
REMARK  110  A    between atoms: _270  and  _273
REMARK  111  A    between atoms: _275  and  _277
REMARK  112  A    between atoms: _277  and  _278
REMARK  113  A    between atoms: _277  and  _280
REMARK  114  A    between atoms: _280  and  _281
REMARK  115  A    between atoms: _284  and  _286
REMARK  116  A    between atoms: _286  and  _287
REMARK  117  A    between atoms: _290  and  _292
REMARK  118  A    between atoms: _292  and  _293
REMARK  119  A    between atoms: _292  and  _295
REMARK  120  A    between atoms: _298  and  _300
REMARK  121  A    between atoms: _300  and  _301
REMARK  122  A    between atoms: _303  and  _305
REMARK  123  A    between atoms: _305  and  _306
REMARK  124  A    between atoms: _305  and  _308
REMARK  125  A    between atoms: _308  and  _309
REMARK  126  A    between atoms: _309  and  _310
REMARK  127  A    between atoms: _312  and  _314
REMARK  128  A    between atoms: _314  and  _315
REMARK  129  A    between atoms: _314  and  _317
REMARK  130  A    between atoms: _317  and  _318
REMARK  131  A    between atoms: _320  and  _322
REMARK  132  A    between atoms: _322  and  _323
REMARK  133  A    between atoms: _322  and  _325
REMARK  134  A    between atoms: _325  and  _326
REMARK  135  A    between atoms: _329  and  _331
REMARK  136  A    between atoms: _331  and  _332
REMARK  137  A    between atoms: _331  and  _334
REMARK  138  A    between atoms: _337  and  _339
REMARK  139  A    between atoms: _339  and  _340
REMARK  140  A    between atoms: _339  and  _342
REMARK  141  A    between atoms: _342  and  _343
REMARK  142  A    between atoms: _343  and  _344
REMARK  143  A    between atoms: _347  and  _349
REMARK  144  A    between atoms: _349  and  _350
REMARK  145  A    between atoms: _349  and  _352
REMARK  146  A    between atoms: _352  and  _353
REMARK  147  A    between atoms: _359  and  _361
REMARK  148  A    between atoms: _361  and  _362
REMARK  149  A    between atoms: _361  and  _364
REMARK  150  A    between atoms: _364  and  _365
REMARK  151  A    between atoms: _367  and  _369
REMARK  152  A    between atoms: _369  and  _370
REMARK  153  A    between atoms: _369  and  _372
REMARK  154  A    between atoms: _372  and  _373
REMARK  155  A    between atoms: _376  and  _378
REMARK  156  A    between atoms: _378  and  _379
REMARK  157  A    between atoms: _378  and  _381
REMARK  158  A    between atoms: _381  and  _382
REMARK  159  A    between atoms: _385  and  _387
REMARK  160  A    between atoms: _387  and  _388
REMARK  161  A    between atoms: _387  and  _390
REMARK  162  A    between atoms: _390  and  _391
REMARK  163  A    between atoms: _394  and  _396
REMARK  164  A    between atoms: _396  and  _397
REMARK  165  A    between atoms: _396  and  _399
REMARK  166  A    between atoms: _399  and  _400
REMARK  167  A    between atoms: _405  and  _407
REMARK  168  A    between atoms: _407  and  _408
REMARK  169  A    between atoms: _407  and  _410
REMARK  170  A    between atoms: _410  and  _411
REMARK  171  A    between atoms: _411  and  _412
REMARK  172  A    between atoms: _412  and  _413
REMARK  173  A    between atoms: _413  and  _414
REMARK  174  A    between atoms: _418  and  _420
REMARK  175  A    between atoms: _420  and  _421
REMARK  176  A    between atoms: _420  and  _423
REMARK  177  A    between atoms: _426  and  _428
REMARK  178  A    between atoms: _428  and  _429
REMARK  179  A    between atoms: _428  and  _431
REMARK  180  A    between atoms: _431  and  _432
REMARK  181  A    between atoms: _435  and  _437
REMARK  182  A    between atoms: _437  and  _438
REMARK  183  A    between atoms: _441  and  _443
REMARK  184  A    between atoms: _443  and  _444
REMARK  185  A    between atoms: _443  and  _446
REMARK  186  A    between atoms: _446  and  _447
REMARK  187  A    between atoms: _452  and  _454
REMARK  188  A    between atoms: _454  and  _455
REMARK  189  A    between atoms: _454  and  _457
REMARK  190  A    between atoms: _457  and  _458
REMARK  191  A    between atoms: _463  and  _465
REMARK  192  A    between atoms: _465  and  _466
REMARK  193  A    between atoms: _465  and  _468
REMARK  194  A    between atoms: _468  and  _469
REMARK  195  A    between atoms: _469  and  _470
REMARK  196  A    between atoms: _473  and  _475
REMARK  197  A    between atoms: _475  and  _476
REMARK  198  A    between atoms: _475  and  _478
REMARK  199  A    between atoms: _481  and  _483
REMARK  200  A    between atoms: _483  and  _484
REMARK  201  A    between atoms: _483  and  _486
REMARK  202  A    between atoms: _486  and  _487
REMARK  203  A    between atoms: _490  and  _492
REMARK  204  A    between atoms: _492  and  _493
REMARK  205  A    between atoms: _492  and  _495
REMARK  206  A    between atoms: _495  and  _496
REMARK  207  A    between atoms: _496  and  _497
REMARK  208  A    between atoms: _497  and  _498
REMARK  209  A    between atoms: _507  and  _509
REMARK  210  A    between atoms: _509  and  _510
REMARK  211  A    between atoms: _509  and  _512
REMARK  212  A    between atoms: _512  and  _513
REMARK                            x       y       z     vdW  Elec       q    Type
REMARK                         _______ _______ _______ _____ _____    ______ ____
ROOT
ATOM      1  CA  GLU A   1      20.268 -17.576  21.515  0.00  0.00    +0.134 C 
ENDROOT
BRANCH   1   2
ATOM      2  N   GLU A   1      20.208 -16.164  21.868  0.00  0.00    -0.239 NA
ATOM      3  H   GLU A   1      21.053 -15.706  22.267  0.00  0.00    +0.142 HD
ENDBRANCH   1   2
BRANCH   1   4
ATOM      4  C   GLU A   1      19.404 -18.392  22.458  0.00  0.00    +0.224 C 
ATOM      5  O   GLU A   1      18.722 -19.315  22.026  0.00  0.00    -0.287 OA
ENDBRANCH   1   4
BRANCH   1   6
ATOM      6  CB  GLU A   1      21.724 -18.065  21.552  0.00  0.00    +0.037 C 
BRANCH   6   7
ATOM      7  CG  GLU A   1      22.676 -17.257  20.675  0.00  0.00    +0.116 C 
BRANCH   7   8
ATOM      8  CD  GLU A   1      24.128 -17.382  21.126  0.00  0.00    +0.365 C 
ATOM      9  OE2 GLU A   1      24.382 -17.777  22.291  0.00  0.00    -0.246 OA
ATOM     10  OE1 GLU A   1      25.040 -17.093  20.332  0.00  0.00    -0.246 OA
ENDBRANCH   7   8
ENDBRANCH   6   7
ENDBRANCH   1   6
TORSDOF 5
REMARK  Name = ../refined-set-2016/3fuc/3fuc_pocket.pdb
REMARK  212 active torsions:
REMARK  status: ('A' for Active; 'I' for Inactive)
REMARK    1  A    between atoms: _1  and  _3
REMARK    2  A    between atoms: _3  and  _4
REMARK    3  A    between atoms: _3  and  _6
REMARK    4  A    between atoms: _6  and  _7
REMARK    5  A    between atoms: _10  and  _12
REMARK    6  A    between atoms: _12  and  _13
REMARK    7  A    between atoms: _12  and  _15
REMARK    8  A    between atoms: _17  and  _19
REMARK    9  A    between atoms: _19  and  _20
REMARK   10  A    between atoms: _22  and  _24
REMARK   11  A    between atoms: _24  and  _25
REMARK   12  A    between atoms: _24  and  _27
REMARK   13  A    between atoms: _27  and  _28
REMARK   14  A    between atoms: _30  and  _32
REMARK   15  A    between atoms: _32  and  _33
REMARK   16  A    between atoms: _35  and  _37
REMARK   17  A    between atoms: _37  and  _38
REMARK   18  A    between atoms: _37  and  _40
REMARK   19  A    between atoms: _40  and  _41
REMARK   20  A    between atoms: _44  and  _46
REMARK   21  A    between atoms: _46  and  _47
REMARK   22  A    between atoms: _49  and  _51
REMARK   23  A    between atoms: _51  and  _52
REMARK   24  A    between atoms: _54  and  _56
REMARK   25  A    between atoms: _56  and  _57
REMARK   26  A    between atoms: _56  and  _59
REMARK   27  A    between atoms: _59  and  _60
REMARK   28  A    between atoms: _60  and  _61
REMARK   29  A    between atoms: _61  and  _62
REMARK   30  A    between atoms: _71  and  _73
REMARK   31  A    between atoms: _73  and  _74
REMARK   32  A    between atoms: _73  and  _76
REMARK   33  A    between atoms: _76  and  _77
REMARK   34  A    between atoms: _83  and  _85
REMARK   35  A    between atoms: _85  and  _86
REMARK   36  A    between atoms: _85  and  _88
REMARK   37  A    between atoms: _88  and  _89
REMARK   38  A    between atoms: _94  and  _96
REMARK   39  A    between atoms: _96  and  _97
REMARK   40  A    between atoms: _96  and  _99
REMARK   41  A    between atoms: _99  and  _100
REMARK   42  A    between atoms: _100  and  _101
REMARK   43  A    between atoms: _103  and  _105
REMARK   44  A    between atoms: _105  and  _106
REMARK   45  A    between atoms: _105  and  _108
REMARK   46  A    between atoms: _108  and  _109
REMARK   47  A    between atoms: _114  and  _115
REMARK   48  A    between atoms: _117  and  _119
REMARK   49  A    between atoms: _119  and  _120
REMARK   50  A    between atoms: _119  and  _122
REMARK   51  A    between atoms: _122  and  _123
REMARK   52  A    between atoms: _123  and  _124
REMARK   53  A    between atoms: _127  and  _129
REMARK   54  A    between atoms: _129  and  _130
REMARK   55  A    between atoms: _129  and  _132
REMARK   56  A    between atoms: _132  and  _133
REMARK   57  A    between atoms: _136  and  _138
REMARK   58  A    between atoms: _138  and  _139
REMARK   59  A    between atoms: _138  and  _141
REMARK   60  A    between atoms: _141  and  _142
REMARK   61  A    between atoms: _147  and  _149
REMARK   62  A    between atoms: _149  and  _150
REMARK   63  A    between atoms: _153  and  _155
REMARK   64  A    between atoms: _155  and  _156
REMARK   65  A    between atoms: _159  and  _161
REMARK   66  A    between atoms: _161  and  _162
REMARK   67  A    between atoms: _164  and  _166
REMARK   68  A    between atoms: _166  and  _167
REMARK   69  A    between atoms: _169  and  _171
REMARK   70  A    between atoms: _171  and  _172
REMARK   71  A    between atoms: _171  and  _174
REMARK   72  A    between atoms: _174  and  _175
REMARK   73  A    between atoms: _178  and  _180
REMARK   74  A    between atoms: _180  and  _181
REMARK   75  A    between atoms: _180  and  _183
REMARK   76  A    between atoms: _183  and  _184
REMARK   77  A    between atoms: _189  and  _190
REMARK   78  A    between atoms: _192  and  _194
REMARK   79  A    between atoms: _194  and  _195
REMARK   80  A    between atoms: _194  and  _197
REMARK   81  A    between atoms: _200  and  _202
REMARK   82  A    between atoms: _202  and  _203
REMARK   83  A    between atoms: _202  and  _205
REMARK   84  A    between atoms: _205  and  _206
REMARK   85  A    between atoms: _206  and  _207
REMARK   86  A    between atoms: _209  and  _211
REMARK   87  A    between atoms: _211  and  _212
REMARK   88  A    between atoms: _211  and  _214
REMARK   89  A    between atoms: _214  and  _215
REMARK   90  A    between atoms: _218  and  _220
REMARK   91  A    between atoms: _220  and  _221
REMARK   92  A    between atoms: _223  and  _225
REMARK   93  A    between atoms: _225  and  _226
REMARK   94  A    between atoms: _229  and  _230
REMARK   95  A    between atoms: _235  and  _237
REMARK   96  A    between atoms: _237  and  _238
REMARK   97  A    between atoms: _237  and  _240
REMARK   98  A    between atoms: _240  and  _241
REMARK   99  A    between atoms: _246  and  _248
REMARK  100  A    between atoms: _248  and  _249
REMARK  101  A    between atoms: _248  and  _251
REMARK  102  A    between atoms: _251  and  _252
REMARK  103  A    between atoms: _258  and  _260
REMARK  104  A    between atoms: _260  and  _261
REMARK  105  A    between atoms: _260  and  _263
REMARK  106  A    between atoms: _263  and  _264
REMARK  107  A    between atoms: _264  and  _265
REMARK  108  A    between atoms: _268  and  _270
REMARK  109  A    between atoms: _270  and  _271
REMARK  110  A    between atoms: _270  and  _273
REMARK  111  A    between atoms: _275  and  _277
REMARK  112  A    between atoms: _277  and  _278
REMARK  113  A    between atoms: _277  and  _280
REMARK  114  A    between atoms: _280  and  _281
REMARK  115  A    between atoms: _284  and  _286
REMARK  116  A    between atoms: _286  and  _287
REMARK  117  A    between atoms: _290  and  _292
REMARK  118  A    between atoms: _292  and  _293
REMARK  119  A    between atoms: _292  and  _295
REMARK  120  A    between atoms: _298  and  _300
REMARK  121  A    between atoms: _300  and  _301
REMARK  122  A    between atoms: _303  and  _305
REMARK  123  A    between atoms: _305  and  _306
REMARK  124  A    between atoms: _305  and  _308
REMARK  125  A    between atoms: _308  and  _309
REMARK  126  A    between atoms: _309  and  _310
REMARK  127  A    between atoms: _312  and  _314
REMARK  128  A    between atoms: _314  and  _315
REMARK  129  A    between atoms: _314  and  _317
REMARK  130  A    between atoms: _317  and  _318
REMARK  131  A    between atoms: _320  and  _322
REMARK  132  A    between atoms: _322  and  _323
REMARK  133  A    between atoms: _322  and  _325
REMARK  134  A    between atoms: _325  and  _326
REMARK  135  A    between atoms: _329  and  _331
REMARK  136  A    between atoms: _331  and  _332
REMARK  137  A    between atoms: _331  and  _334
REMARK  138  A    between atoms: _337  and  _339
REMARK  139  A    between atoms: _339  and  _340
REMARK  140  A    between atoms: _339  and  _342
REMARK  141  A    between atoms: _342  and  _343
REMARK  142  A    between atoms: _343  and  _344
REMARK  143  A    between atoms: _347  and  _349
REMARK  144  A    between atoms: _349  and  _350
REMARK  145  A    between atoms: _349  and  _352
REMARK  146  A    between atoms: _352  and  _353
REMARK  147  A    between atoms: _359  and  _361
REMARK  148  A    between atoms: _361  and  _362
REMARK  149  A    between atoms: _361  and  _364
REMARK  150  A    between atoms: _364  and  _365
REMARK  151  A    between atoms: _367  and  _369
REMARK  152  A    between atoms: _369  and  _370
REMARK  153  A    between atoms: _369  and  _372
REMARK  154  A    between atoms: _372  and  _373
REMARK  155  A    between atoms: _376  and  _378
REMARK  156  A    between atoms: _378  and  _379
REMARK  157  A    between atoms: _378  and  _381
REMARK  158  A    between atoms: _381  and  _382
REMARK  159  A    between atoms: _385  and  _387
REMARK  160  A    between atoms: _387  and  _388
REMARK  161  A    between atoms: _387  and  _390
REMARK  162  A    between atoms: _390  and  _391
REMARK  163  A    between atoms: _394  and  _396
REMARK  164  A    between atoms: _396  and  _397
REMARK  165  A    between atoms: _396  and  _399
REMARK  166  A    between atoms: _399  and  _400
REMARK  167  A    between atoms: _405  and  _407
REMARK  168  A    between atoms: _407  and  _408
REMARK  169  A    between atoms: _407  and  _410
REMARK  170  A    between atoms: _410  and  _411
REMARK  171  A    between atoms: _411  and  _412
REMARK  172  A    between atoms: _412  and  _413
REMARK  173  A    between atoms: _413  and  _414
REMARK  174  A    between atoms: _418  and  _420
REMARK  175  A    between atoms: _420  and  _421
REMARK  176  A    between atoms: _420  and  _423
REMARK  177  A    between atoms: _426  and  _428
REMARK  178  A    between atoms: _428  and  _429
REMARK  179  A    between atoms: _428  and  _431
REMARK  180  A    between atoms: _431  and  _432
REMARK  181  A    between atoms: _435  and  _437
REMARK  182  A    between atoms: _437  and  _438
REMARK  183  A    between atoms: _441  and  _443
REMARK  184  A    between atoms: _443  and  _444
REMARK  185  A    between atoms: _443  and  _446
REMARK  186  A    between atoms: _446  and  _447
REMARK  187  A    between atoms: _452  and  _454
REMARK  188  A    between atoms: _454  and  _455
REMARK  189  A    between atoms: _454  and  _457
REMARK  190  A    between atoms: _457  and  _458
REMARK  191  A    between atoms: _463  and  _465
REMARK  192  A    between atoms: _465  and  _466
REMARK  193  A    between atoms: _465  and  _468
REMARK  194  A    between atoms: _468  and  _469
REMARK  195  A    between atoms: _469  and  _470
REMARK  196  A    between atoms: _473  and  _475
REMARK  197  A    between atoms: _475  and  _476
REMARK  198  A    between atoms: _475  and  _478
REMARK  199  A    between atoms: _481  and  _483
REMARK  200  A    between atoms: _483  and  _484
REMARK  201  A    between atoms: _483  and  _486
REMARK  202  A    between atoms: _486  and  _487
REMARK  203  A    between atoms: _490  and  _492
REMARK  204  A    between atoms: _492  and  _493
REMARK  205  A    between atoms: _492  and  _495
REMARK  206  A    between atoms: _495  and  _496
REMARK  207  A    between atoms: _496  and  _497
REMARK  208  A    between atoms: _497  and  _498
REMARK  209  A    between atoms: _507  and  _509
REMARK  210  A    between atoms: _509  and  _510
REMARK  211  A    between atoms: _509  and  _512
REMARK  212  A    between atoms: _512  and  _513
REMARK                            x       y       z     vdW  Elec       q    Type
REMARK                         _______ _______ _______ _____ _____    ______ ____
ROOT
ATOM      1  CA  THR A   5      37.153 -12.570  33.274  0.00  0.00    +0.176 C 
ENDROOT
BRANCH   1   2
ATOM      2  C   THR A   5      37.748 -11.325  33.931  0.00  0.00    +0.243 C 
ATOM      3  N   ASN A   6      36.936 -10.597  34.702  0.00  0.00    -0.297 N 
ATOM      4  H   ASN A   6      35.976 -10.954  34.880  0.00  0.00    +0.150 HD
ATOM      5  O   THR A   5      38.928 -11.021  33.716  0.00  0.00    -0.273 OA
BRANCH   3   6
ATOM      6  CA  ASN A   6      37.325  -9.328  35.307  0.00  0.00    +0.158 C 
BRANCH   6   7
ATOM      7  C   ASN A   6      36.263  -8.922  36.298  0.00  0.00    +0.241 C 
ATOM      8  N   LYS A   7      36.682  -8.231  37.353  0.00  0.00    -0.297 N 
ATOM      9  H   LYS A   7      37.704  -8.121  37.513  0.00  0.00    +0.150 HD
ATOM     10  O   ASN A   6      35.058  -9.242  36.114  0.00  0.00    -0.273 OA
BRANCH   8  11
ATOM     11  CA  LYS A   7      35.750  -7.625  38.288  0.00  0.00    +0.149 C 
BRANCH  11  12
ATOM     12  C   LYS A   7      35.499  -6.213  37.779  0.00  0.00    +0.241 C 
ATOM     13  O   LYS A   7      36.424  -5.425  37.620  0.00  0.00    -0.273 OA
ATOM     14  N   VAL A   8      34.250  -5.904  37.460  0.00  0.00    -0.297 N 
ATOM     15  H   VAL A   8      33.477  -6.580  37.625  0.00  0.00    +0.150 HD
BRANCH  14  16
ATOM     16  CA  VAL A   8      33.980  -4.585  36.868  0.00  0.00    +0.149 C 
BRANCH  16  17
ATOM     17  C   VAL A   8      34.317  -3.463  37.859  0.00  0.00    +0.241 C 
ATOM     18  O   VAL A   8      34.230  -3.650  39.074  0.00  0.00    -0.273 OA
ATOM     19  N   ILE A   9      34.706  -2.311  37.325  0.00  0.00    -0.298 N 
ATOM     20  H   ILE A   9      34.734  -2.217  36.290  0.00  0.00    +0.150 HD
BRANCH  19  21
ATOM     21  CA  ILE A   9      35.095  -1.175  38.151  0.00  0.00    +0.137 C 
BRANCH  21  22
ATOM     22  CB  ILE A   9      35.998  -0.215  37.328  0.00  0.00    +0.026 C 
ATOM     23  CG2 ILE A   9      36.500   0.970  38.193  0.00  0.00    +0.002 C 
BRANCH  22  24
ATOM     24  CG1 ILE A   9      37.174  -0.995  36.717  0.00  0.00    +0.002 C 
ATOM     25  CD1 ILE A   9      38.081  -1.684  37.762  0.00  0.00    +0.000 C 
ENDBRANCH  22  24
ENDBRANCH  21  22
BRANCH  21  26
ATOM     26  C   ILE A   9      33.856  -0.482  38.724  0.00  0.00    +0.227 C 
ATOM     27  O   ILE A   9      33.001   0.003  37.971  0.00  0.00    -0.286 OA
ENDBRANCH  21  26
ENDBRANCH  19  21
ENDBRANCH  16  17
BRANCH  16  28
ATOM     28  CB  VAL A   8      32.499  -4.451  36.410  0.00  0.00    +0.027 C 
ATOM     29  CG2 VAL A   8      31.581  -4.341  37.600  0.00  0.00    +0.002 C 
ATOM     30  CG1 VAL A   8      32.080  -5.600  35.467  0.00  0.00    +0.002 C 
ENDBRANCH  16  28
ENDBRANCH  14  16
ENDBRANCH  11  12
BRANCH  11  31
ATOM     31  CB  LYS A   7      36.323  -7.629  39.725  0.00  0.00    +0.029 C 
BRANCH  31  32
ATOM     32  CG  LYS A   7      36.525  -9.061  40.282  0.00  0.00    +0.000 C 
BRANCH  32  33
ATOM     33  CD  LYS A   7      37.288  -9.094  41.611  0.00  0.00    -0.024 C 
BRANCH  33  34
ATOM     34  CE  LYS A   7      36.566  -8.311  42.676  0.00  0.00    -0.086 C 
BRANCH  34  35
ATOM     35  NZ  LYS A   7      35.255  -8.877  43.066  0.00  0.00    +0.380 N 
ATOM     36  HZ1 LYS A   7      34.826  -8.280  43.801  0.00  0.00    -0.089 HD
ATOM     37  HZ2 LYS A   7      35.390  -9.840  43.435  0.00  0.00    -0.089 HD
ATOM     38  HZ3 LYS A   7      34.631  -8.908  42.235  0.00  0.00    -0.089 HD
ENDBRANCH  34  35
ENDBRANCH  33  34
ENDBRANCH  32  33
ENDBRANCH  31  32
ENDBRANCH  11  31
ENDBRANCH   8  11
ENDBRANCH   6   7
BRANCH   6  39
ATOM     39  CB  ASN A   6      37.539  -8.221  34.260  0.00  0.00    +0.114 C 
BRANCH  39  40
ATOM     40  CG  ASN A   6      36.320  -7.988  33.377  0.00  0.00    +0.222 C 
ATOM     41  ND2 ASN A   6      35.748  -6.792  33.470  0.00  0.00    -0.329 N 
ATOM     42 HD21 ASN A   6      36.140  -6.077  34.115  0.00  0.00    +0.145 HD
ATOM     43 HD22 ASN A   6      34.908  -6.571  32.898  0.00  0.00    +0.145 HD
ATOM     44  OD1 ASN A   6      35.904  -8.875  32.634  0.00  0.00    -0.275 OA
ENDBRANCH  39  40
ENDBRANCH   6  39
ENDBRANCH   3   6
ENDBRANCH   1   2
BRANCH   1  47
ATOM     45  C   ILE A   4      35.623 -13.801  34.693  0.00  0.00    +0.241 C 
ATOM     46  O   ILE A   4      36.573 -14.335  35.293  0.00  0.00    -0.273 OA
ATOM     47  N   THR A   5      35.818 -12.887  33.757  0.00  0.00    -0.295 N 
ATOM     48  H   THR A   5      35.000 -12.384  33.358  0.00  0.00    +0.150 HD
BRANCH  45  49
ATOM     49  CA  ILE A   4      34.183 -14.223  34.997  0.00  0.00    +0.149 C 
BRANCH  49  51
ATOM     50  C   LEU A   3      33.754 -15.819  33.205  0.00  0.00    +0.241 C 
ATOM     51  N   ILE A   4      33.983 -15.590  34.501  0.00  0.00    -0.297 N 
ATOM     52  H   ILE A   4      34.020 -16.389  35.166  0.00  0.00    +0.150 HD
ATOM     53  O   LEU A   3      33.657 -14.899  32.365  0.00  0.00    -0.273 OA
BRANCH  50  54
ATOM     54  CA  LEU A   3      33.616 -17.259  32.779  0.00  0.00    +0.149 C 
BRANCH  54  57
ATOM     55  C   SER A   2      31.226 -17.665  32.871  0.00  0.00    +0.243 C 
ATOM     56  O   SER A   2      31.291 -18.052  34.044  0.00  0.00    -0.273 OA
ATOM     57  N   LEU A   3      32.292 -17.391  32.147  0.00  0.00    -0.297 N 
ATOM     58  H   LEU A   3      32.198 -17.267  31.119  0.00  0.00    +0.150 HD
BRANCH  55  59
ATOM     59  CA  SER A   2      29.893 -17.373  32.214  0.00  0.00    +0.178 C 
BRANCH  59  61
ATOM     60  C   PHE A   1      28.520 -19.333  31.584  0.00  0.00    +0.239 C 
ATOM     61  N   SER A   2      28.991 -18.478  32.495  0.00  0.00    -0.295 N 
ATOM     62  H   SER A   2      28.690 -18.613  33.481  0.00  0.00    +0.150 HD
ATOM     63  O   PHE A   1      28.756 -19.262  30.374  0.00  0.00    -0.274 OA
BRANCH  60  64
ATOM     64  CA  PHE A   1      27.607 -20.410  32.147  0.00  0.00    +0.149 C 
BRANCH  64  65
ATOM     65  N   PHE A   1      26.810 -21.050  31.117  0.00  0.00    -0.238 NA
ATOM     66  H   PHE A   1      27.160 -21.109  30.140  0.00  0.00    +0.142 HD
ENDBRANCH  64  65
BRANCH  64  67
ATOM     67  CB  PHE A   1      28.438 -21.432  32.942  0.00  0.00    +0.053 C 
BRANCH  67  68
ATOM     68  CG  PHE A   1      29.442 -22.207  32.102  0.00  0.00    -0.020 A 
ATOM     69  CD2 PHE A   1      29.196 -23.538  31.816  0.00  0.00    -0.004 A 
ATOM     70  CE2 PHE A   1      30.154 -24.307  31.077  0.00  0.00    -0.000 A 
ATOM     71  CZ  PHE A   1      31.322 -23.718  30.618  0.00  0.00    -0.000 A 
ATOM     72  CE1 PHE A   1      31.579 -22.377  30.886  0.00  0.00    -0.000 A 
ATOM     73  CD1 PHE A   1      30.634 -21.628  31.640  0.00  0.00    -0.004 A 
ENDBRANCH  67  68
ENDBRANCH  64  67
ENDBRANCH  60  64
ENDBRANCH  59  61
BRANCH  59  74
ATOM     74  CB  SER A   2      29.393 -16.050  32.818  0.00  0.00    +0.166 C 
BRANCH  74  75
ATOM     75  OG  SER A   2      28.146 -15.695  32.271  0.00  0.00    -0.380 OA
ATOM     76  H   SER A   2      28.236 -15.587  31.291  0.00  0.00    +0.211 HD
ENDBRANCH  74  75
ENDBRANCH  59  74
ENDBRANCH  55  59
ENDBRANCH  54  57
BRANCH  54  77
ATOM     77  CB  LEU A   3      34.709 -17.587  31.770  0.00  0.00    +0.029 C 
BRANCH  77  78
ATOM     78  CG  LEU A   3      36.128 -17.303  32.293  0.00  0.00    +0.002 C 
ATOM     79  CD2 LEU A   3      36.485 -18.211  33.504  0.00  0.00    +0.000 C 
ATOM     80  CD1 LEU A   3      37.145 -17.445  31.168  0.00  0.00    +0.000 C 
ENDBRANCH  77  78
ENDBRANCH  54  77
ENDBRANCH  50  54
ENDBRANCH  49  51
BRANCH  49  81
ATOM     81  CB  ILE A   4      33.855 -14.158  36.512  0.00  0.00    +0.027 C 
ATOM     82  CG2 ILE A   4      34.117 -12.721  37.088  0.00  0.00    +0.002 C 
BRANCH  81  83
ATOM     83  CG1 ILE A   4      32.435 -14.679  36.798  0.00  0.00    +0.002 C 
ATOM     84  CD1 ILE A   4      31.306 -13.881  36.110  0.00  0.00    +0.000 C 
ENDBRANCH  81  83
ENDBRANCH  49  81
ENDBRANCH  45  49
ENDBRANCH   1  47
BRANCH   1  85
ATOM     85  CB  THR A   5      37.146 -12.380  31.776  0.00  0.00    +0.137 C 
ATOM     86  CG2 THR A   5      36.762 -13.680  31.097  0.00  0.00    +0.034 C 
BRANCH  85  87
ATOM     87  OG1 THR A   5      36.077 -11.463  31.427  0.00  0.00    -0.382 OA
ATOM     88  HG1 THR A   5      36.230 -10.594  31.876  0.00  0.00    +0.210 HD
ENDBRANCH  85  87
ENDBRANCH   1  85
TORSDOF 38
REMARK  Name = ../refined-set-2016/3fuc/3fuc_pocket.pdb
REMARK  212 active torsions:
REMARK  status: ('A' for Active; 'I' for Inactive)
REMARK    1  A    between atoms: _1  and  _3
REMARK    2  A    between atoms: _3  and  _4
REMARK    3  A    between atoms: _3  and  _6
REMARK    4  A    between atoms: _6  and  _7
REMARK    5  A    between atoms: _10  and  _12
REMARK    6  A    between atoms: _12  and  _13
REMARK    7  A    between atoms: _12  and  _15
REMARK    8  A    between atoms: _17  and  _19
REMARK    9  A    between atoms: _19  and  _20
REMARK   10  A    between atoms: _22  and  _24
REMARK   11  A    between atoms: _24  and  _25
REMARK   12  A    between atoms: _24  and  _27
REMARK   13  A    between atoms: _27  and  _28
REMARK   14  A    between atoms: _30  and  _32
REMARK   15  A    between atoms: _32  and  _33
REMARK   16  A    between atoms: _35  and  _37
REMARK   17  A    between atoms: _37  and  _38
REMARK   18  A    between atoms: _37  and  _40
REMARK   19  A    between atoms: _40  and  _41
REMARK   20  A    between atoms: _44  and  _46
REMARK   21  A    between atoms: _46  and  _47
REMARK   22  A    between atoms: _49  and  _51
REMARK   23  A    between atoms: _51  and  _52
REMARK   24  A    between atoms: _54  and  _56
REMARK   25  A    between atoms: _56  and  _57
REMARK   26  A    between atoms: _56  and  _59
REMARK   27  A    between atoms: _59  and  _60
REMARK   28  A    between atoms: _60  and  _61
REMARK   29  A    between atoms: _61  and  _62
REMARK   30  A    between atoms: _71  and  _73
REMARK   31  A    between atoms: _73  and  _74
REMARK   32  A    between atoms: _73  and  _76
REMARK   33  A    between atoms: _76  and  _77
REMARK   34  A    between atoms: _83  and  _85
REMARK   35  A    between atoms: _85  and  _86
REMARK   36  A    between atoms: _85  and  _88
REMARK   37  A    between atoms: _88  and  _89
REMARK   38  A    between atoms: _94  and  _96
REMARK   39  A    between atoms: _96  and  _97
REMARK   40  A    between atoms: _96  and  _99
REMARK   41  A    between atoms: _99  and  _100
REMARK   42  A    between atoms: _100  and  _101
REMARK   43  A    between atoms: _103  and  _105
REMARK   44  A    between atoms: _105  and  _106
REMARK   45  A    between atoms: _105  and  _108
REMARK   46  A    between atoms: _108  and  _109
REMARK   47  A    between atoms: _114  and  _115
REMARK   48  A    between atoms: _117  and  _119
REMARK   49  A    between atoms: _119  and  _120
REMARK   50  A    between atoms: _119  and  _122
REMARK   51  A    between atoms: _122  and  _123
REMARK   52  A    between atoms: _123  and  _124
REMARK   53  A    between atoms: _127  and  _129
REMARK   54  A    between atoms: _129  and  _130
REMARK   55  A    between atoms: _129  and  _132
REMARK   56  A    between atoms: _132  and  _133
REMARK   57  A    between atoms: _136  and  _138
REMARK   58  A    between atoms: _138  and  _139
REMARK   59  A    between atoms: _138  and  _141
REMARK   60  A    between atoms: _141  and  _142
REMARK   61  A    between atoms: _147  and  _149
REMARK   62  A    between atoms: _149  and  _150
REMARK   63  A    between atoms: _153  and  _155
REMARK   64  A    between atoms: _155  and  _156
REMARK   65  A    between atoms: _159  and  _161
REMARK   66  A    between atoms: _161  and  _162
REMARK   67  A    between atoms: _164  and  _166
REMARK   68  A    between atoms: _166  and  _167
REMARK   69  A    between atoms: _169  and  _171
REMARK   70  A    between atoms: _171  and  _172
REMARK   71  A    between atoms: _171  and  _174
REMARK   72  A    between atoms: _174  and  _175
REMARK   73  A    between atoms: _178  and  _180
REMARK   74  A    between atoms: _180  and  _181
REMARK   75  A    between atoms: _180  and  _183
REMARK   76  A    between atoms: _183  and  _184
REMARK   77  A    between atoms: _189  and  _190
REMARK   78  A    between atoms: _192  and  _194
REMARK   79  A    between atoms: _194  and  _195
REMARK   80  A    between atoms: _194  and  _197
REMARK   81  A    between atoms: _200  and  _202
REMARK   82  A    between atoms: _202  and  _203
REMARK   83  A    between atoms: _202  and  _205
REMARK   84  A    between atoms: _205  and  _206
REMARK   85  A    between atoms: _206  and  _207
REMARK   86  A    between atoms: _209  and  _211
REMARK   87  A    between atoms: _211  and  _212
REMARK   88  A    between atoms: _211  and  _214
REMARK   89  A    between atoms: _214  and  _215
REMARK   90  A    between atoms: _218  and  _220
REMARK   91  A    between atoms: _220  and  _221
REMARK   92  A    between atoms: _223  and  _225
REMARK   93  A    between atoms: _225  and  _226
REMARK   94  A    between atoms: _229  and  _230
REMARK   95  A    between atoms: _235  and  _237
REMARK   96  A    between atoms: _237  and  _238
REMARK   97  A    between atoms: _237  and  _240
REMARK   98  A    between atoms: _240  and  _241
REMARK   99  A    between atoms: _246  and  _248
REMARK  100  A    between atoms: _248  and  _249
REMARK  101  A    between atoms: _248  and  _251
REMARK  102  A    between atoms: _251  and  _252
REMARK  103  A    between atoms: _258  and  _260
REMARK  104  A    between atoms: _260  and  _261
REMARK  105  A    between atoms: _260  and  _263
REMARK  106  A    between atoms: _263  and  _264
REMARK  107  A    between atoms: _264  and  _265
REMARK  108  A    between atoms: _268  and  _270
REMARK  109  A    between atoms: _270  and  _271
REMARK  110  A    between atoms: _270  and  _273
REMARK  111  A    between atoms: _275  and  _277
REMARK  112  A    between atoms: _277  and  _278
REMARK  113  A    between atoms: _277  and  _280
REMARK  114  A    between atoms: _280  and  _281
REMARK  115  A    between atoms: _284  and  _286
REMARK  116  A    between atoms: _286  and  _287
REMARK  117  A    between atoms: _290  and  _292
REMARK  118  A    between atoms: _292  and  _293
REMARK  119  A    between atoms: _292  and  _295
REMARK  120  A    between atoms: _298  and  _300
REMARK  121  A    between atoms: _300  and  _301
REMARK  122  A    between atoms: _303  and  _305
REMARK  123  A    between atoms: _305  and  _306
REMARK  124  A    between atoms: _305  and  _308
REMARK  125  A    between atoms: _308  and  _309
REMARK  126  A    between atoms: _309  and  _310
REMARK  127  A    between atoms: _312  and  _314
REMARK  128  A    between atoms: _314  and  _315
REMARK  129  A    between atoms: _314  and  _317
REMARK  130  A    between atoms: _317  and  _318
REMARK  131  A    between atoms: _320  and  _322
REMARK  132  A    between atoms: _322  and  _323
REMARK  133  A    between atoms: _322  and  _325
REMARK  134  A    between atoms: _325  and  _326
REMARK  135  A    between atoms: _329  and  _331
REMARK  136  A    between atoms: _331  and  _332
REMARK  137  A    between atoms: _331  and  _334
REMARK  138  A    between atoms: _337  and  _339
REMARK  139  A    between atoms: _339  and  _340
REMARK  140  A    between atoms: _339  and  _342
REMARK  141  A    between atoms: _342  and  _343
REMARK  142  A    between atoms: _343  and  _344
REMARK  143  A    between atoms: _347  and  _349
REMARK  144  A    between atoms: _349  and  _350
REMARK  145  A    between atoms: _349  and  _352
REMARK  146  A    between atoms: _352  and  _353
REMARK  147  A    between atoms: _359  and  _361
REMARK  148  A    between atoms: _361  and  _362
REMARK  149  A    between atoms: _361  and  _364
REMARK  150  A    between atoms: _364  and  _365
REMARK  151  A    between atoms: _367  and  _369
REMARK  152  A    between atoms: _369  and  _370
REMARK  153  A    between atoms: _369  and  _372
REMARK  154  A    between atoms: _372  and  _373
REMARK  155  A    between atoms: _376  and  _378
REMARK  156  A    between atoms: _378  and  _379
REMARK  157  A    between atoms: _378  and  _381
REMARK  158  A    between atoms: _381  and  _382
REMARK  159  A    between atoms: _385  and  _387
REMARK  160  A    between atoms: _387  and  _388
REMARK  161  A    between atoms: _387  and  _390
REMARK  162  A    between atoms: _390  and  _391
REMARK  163  A    between atoms: _394  and  _396
REMARK  164  A    between atoms: _396  and  _397
REMARK  165  A    between atoms: _396  and  _399
REMARK  166  A    between atoms: _399  and  _400
REMARK  167  A    between atoms: _405  and  _407
REMARK  168  A    between atoms: _407  and  _408
REMARK  169  A    between atoms: _407  and  _410
REMARK  170  A    between atoms: _410  and  _411
REMARK  171  A    between atoms: _411  and  _412
REMARK  172  A    between atoms: _412  and  _413
REMARK  173  A    between atoms: _413  and  _414
REMARK  174  A    between atoms: _418  and  _420
REMARK  175  A    between atoms: _420  and  _421
REMARK  176  A    between atoms: _420  and  _423
REMARK  177  A    between atoms: _426  and  _428
REMARK  178  A    between atoms: _428  and  _429
REMARK  179  A    between atoms: _428  and  _431
REMARK  180  A    between atoms: _431  and  _432
REMARK  181  A    between atoms: _435  and  _437
REMARK  182  A    between atoms: _437  and  _438
REMARK  183  A    between atoms: _441  and  _443
REMARK  184  A    between atoms: _443  and  _444
REMARK  185  A    between atoms: _443  and  _446
REMARK  186  A    between atoms: _446  and  _447
REMARK  187  A    between atoms: _452  and  _454
REMARK  188  A    between atoms: _454  and  _455
REMARK  189  A    between atoms: _454  and  _457
REMARK  190  A    between atoms: _457  and  _458
REMARK  191  A    between atoms: _463  and  _465
REMARK  192  A    between atoms: _465  and  _466
REMARK  193  A    between atoms: _465  and  _468
REMARK  194  A    between atoms: _468  and  _469
REMARK  195  A    between atoms: _469  and  _470
REMARK  196  A    between atoms: _473  and  _475
REMARK  197  A    between atoms: _475  and  _476
REMARK  198  A    between atoms: _475  and  _478
REMARK  199  A    between atoms: _481  and  _483
REMARK  200  A    between atoms: _483  and  _484
REMARK  201  A    between atoms: _483  and  _486
REMARK  202  A    between atoms: _486  and  _487
REMARK  203  A    between atoms: _490  and  _492
REMARK  204  A    between atoms: _492  and  _493
REMARK  205  A    between atoms: _492  and  _495
REMARK  206  A    between atoms: _495  and  _496
REMARK  207  A    between atoms: _496  and  _497
REMARK  208  A    between atoms: _497  and  _498
REMARK  209  A    between atoms: _507  and  _509
REMARK  210  A    between atoms: _509  and  _510
REMARK  211  A    between atoms: _509  and  _512
REMARK  212  A    between atoms: _512  and  _513
REMARK                            x       y       z     vdW  Elec       q    Type
REMARK                         _______ _______ _______ _____ _____    ______ ____
ROOT
ATOM      1  CA  ASN A   2      40.677  -4.514  29.025  0.00  0.00    +0.158 C 
ENDROOT
BRANCH   1   3
ATOM      2  C   ALA A   1      39.367  -3.292  30.673  0.00  0.00    +0.238 C 
ATOM      3  N   ASN A   2      39.894  -4.441  30.259  0.00  0.00    -0.297 N 
ATOM      4  H   ASN A   2      39.747  -5.303  30.822  0.00  0.00    +0.150 HD
ATOM      5  O   ALA A   1      39.480  -2.242  30.032  0.00  0.00    -0.274 OA
BRANCH   2   6
ATOM      6  CA  ALA A   1      38.636  -3.329  32.005  0.00  0.00    +0.145 C 
ATOM      7  CB  ALA A   1      37.130  -3.492  31.780  0.00  0.00    +0.028 C 
BRANCH   6   8
ATOM      8  N   ALA A   1      38.925  -2.117  32.784  0.00  0.00    -0.238 NA
ATOM      9  H   ALA A   1      38.137  -1.490  33.046  0.00  0.00    +0.142 HD
ENDBRANCH   6   8
ENDBRANCH   2   6
ENDBRANCH   1   3
BRANCH   1  10
ATOM     10  C   ASN A   2      40.661  -5.914  28.456  0.00  0.00    +0.241 C 
ATOM     11  O   ASN A   2      40.662  -6.902  29.195  0.00  0.00    -0.273 OA
ATOM     12  N   HIS A   3      40.650  -5.988  27.135  0.00  0.00    -0.298 N 
ATOM     13  H   HIS A   3      40.731  -5.107  26.589  0.00  0.00    +0.150 HD
BRANCH  12  14
ATOM     14  CA  HIS A   3      40.529  -7.249  26.406  0.00  0.00    +0.143 C 
BRANCH  14  15
ATOM     15  C   HIS A   3      41.686  -8.195  26.719  0.00  0.00    +0.227 C 
ATOM     16  O   HIS A   3      41.498  -9.409  26.780  0.00  0.00    -0.286 OA
ENDBRANCH  14  15
BRANCH  14  17
ATOM     17  CB  HIS A   3      40.439  -6.970  24.896  0.00  0.00    +0.075 C 
BRANCH  17  18
ATOM     18  CG  HIS A   3      40.094  -8.171  24.068  0.00  0.00    +0.082 A 
ATOM     19  CD2 HIS A   3      39.389  -9.287  24.361  0.00  0.00    +0.115 A 
ATOM     20  NE2 HIS A   3      39.377 -10.068  23.231  0.00  0.00    -0.221 NA
ATOM     21  CE1 HIS A   3      40.051  -9.453  22.276  0.00  0.00    +0.199 A 
ATOM     22  ND1 HIS A   3      40.492  -8.303  22.753  0.00  0.00    -0.227 NA
ENDBRANCH  17  18
ENDBRANCH  14  17
ENDBRANCH  12  14
ENDBRANCH   1  10
BRANCH   1  23
ATOM     23  CB  ASN A   2      42.128  -4.048  29.243  0.00  0.00    +0.114 C 
BRANCH  23  24
ATOM     24  CG  ASN A   2      42.862  -4.912  30.240  0.00  0.00    +0.222 C 
ATOM     25  ND2 ASN A   2      42.698  -4.613  31.533  0.00  0.00    -0.329 N 
ATOM     26 HD21 ASN A   2      43.155  -5.195  32.263  0.00  0.00    +0.145 HD
ATOM     27 HD22 ASN A   2      42.113  -3.798  31.808  0.00  0.00    +0.145 HD
ATOM     28  OD1 ASN A   2      43.546  -5.869  29.852  0.00  0.00    -0.275 OA
ENDBRANCH  23  24
ENDBRANCH   1  23
TORSDOF 10
REMARK  Name = ../refined-set-2016/3fuc/3fuc_pocket.pdb
REMARK  212 active torsions:
REMARK  status: ('A' for Active; 'I' for Inactive)
REMARK    1  A    between atoms: _1  and  _3
REMARK    2  A    between atoms: _3  and  _4
REMARK    3  A    between atoms: _3  and  _6
REMARK    4  A    between atoms: _6  and  _7
REMARK    5  A    between atoms: _10  and  _12
REMARK    6  A    between atoms: _12  and  _13
REMARK    7  A    between atoms: _12  and  _15
REMARK    8  A    between atoms: _17  and  _19
REMARK    9  A    between atoms: _19  and  _20
REMARK   10  A    between atoms: _22  and  _24
REMARK   11  A    between atoms: _24  and  _25
REMARK   12  A    between atoms: _24  and  _27
REMARK   13  A    between atoms: _27  and  _28
REMARK   14  A    between atoms: _30  and  _32
REMARK   15  A    between atoms: _32  and  _33
REMARK   16  A    between atoms: _35  and  _37
REMARK   17  A    between atoms: _37  and  _38
REMARK   18  A    between atoms: _37  and  _40
REMARK   19  A    between atoms: _40  and  _41
REMARK   20  A    between atoms: _44  and  _46
REMARK   21  A    between atoms: _46  and  _47
REMARK   22  A    between atoms: _49  and  _51
REMARK   23  A    between atoms: _51  and  _52
REMARK   24  A    between atoms: _54  and  _56
REMARK   25  A    between atoms: _56  and  _57
REMARK   26  A    between atoms: _56  and  _59
REMARK   27  A    between atoms: _59  and  _60
REMARK   28  A    between atoms: _60  and  _61
REMARK   29  A    between atoms: _61  and  _62
REMARK   30  A    between atoms: _71  and  _73
REMARK   31  A    between atoms: _73  and  _74
REMARK   32  A    between atoms: _73  and  _76
REMARK   33  A    between atoms: _76  and  _77
REMARK   34  A    between atoms: _83  and  _85
REMARK   35  A    between atoms: _85  and  _86
REMARK   36  A    between atoms: _85  and  _88
REMARK   37  A    between atoms: _88  and  _89
REMARK   38  A    between atoms: _94  and  _96
REMARK   39  A    between atoms: _96  and  _97
REMARK   40  A    between atoms: _96  and  _99
REMARK   41  A    between atoms: _99  and  _100
REMARK   42  A    between atoms: _100  and  _101
REMARK   43  A    between atoms: _103  and  _105
REMARK   44  A    between atoms: _105  and  _106
REMARK   45  A    between atoms: _105  and  _108
REMARK   46  A    between atoms: _108  and  _109
REMARK   47  A    between atoms: _114  and  _115
REMARK   48  A    between atoms: _117  and  _119
REMARK   49  A    between atoms: _119  and  _120
REMARK   50  A    between atoms: _119  and  _122
REMARK   51  A    between atoms: _122  and  _123
REMARK   52  A    between atoms: _123  and  _124
REMARK   53  A    between atoms: _127  and  _129
REMARK   54  A    between atoms: _129  and  _130
REMARK   55  A    between atoms: _129  and  _132
REMARK   56  A    between atoms: _132  and  _133
REMARK   57  A    between atoms: _136  and  _138
REMARK   58  A    between atoms: _138  and  _139
REMARK   59  A    between atoms: _138  and  _141
REMARK   60  A    between atoms: _141  and  _142
REMARK   61  A    between atoms: _147  and  _149
REMARK   62  A    between atoms: _149  and  _150
REMARK   63  A    between atoms: _153  and  _155
REMARK   64  A    between atoms: _155  and  _156
REMARK   65  A    between atoms: _159  and  _161
REMARK   66  A    between atoms: _161  and  _162
REMARK   67  A    between atoms: _164  and  _166
REMARK   68  A    between atoms: _166  and  _167
REMARK   69  A    between atoms: _169  and  _171
REMARK   70  A    between atoms: _171  and  _172
REMARK   71  A    between atoms: _171  and  _174
REMARK   72  A    between atoms: _174  and  _175
REMARK   73  A    between atoms: _178  and  _180
REMARK   74  A    between atoms: _180  and  _181
REMARK   75  A    between atoms: _180  and  _183
REMARK   76  A    between atoms: _183  and  _184
REMARK   77  A    between atoms: _189  and  _190
REMARK   78  A    between atoms: _192  and  _194
REMARK   79  A    between atoms: _194  and  _195
REMARK   80  A    between atoms: _194  and  _197
REMARK   81  A    between atoms: _200  and  _202
REMARK   82  A    between atoms: _202  and  _203
REMARK   83  A    between atoms: _202  and  _205
REMARK   84  A    between atoms: _205  and  _206
REMARK   85  A    between atoms: _206  and  _207
REMARK   86  A    between atoms: _209  and  _211
REMARK   87  A    between atoms: _211  and  _212
REMARK   88  A    between atoms: _211  and  _214
REMARK   89  A    between atoms: _214  and  _215
REMARK   90  A    between atoms: _218  and  _220
REMARK   91  A    between atoms: _220  and  _221
REMARK   92  A    between atoms: _223  and  _225
REMARK   93  A    between atoms: _225  and  _226
REMARK   94  A    between atoms: _229  and  _230
REMARK   95  A    between atoms: _235  and  _237
REMARK   96  A    between atoms: _237  and  _238
REMARK   97  A    between atoms: _237  and  _240
REMARK   98  A    between atoms: _240  and  _241
REMARK   99  A    between atoms: _246  and  _248
REMARK  100  A    between atoms: _248  and  _249
REMARK  101  A    between atoms: _248  and  _251
REMARK  102  A    between atoms: _251  and  _252
REMARK  103  A    between atoms: _258  and  _260
REMARK  104  A    between atoms: _260  and  _261
REMARK  105  A    between atoms: _260  and  _263
REMARK  106  A    between atoms: _263  and  _264
REMARK  107  A    between atoms: _264  and  _265
REMARK  108  A    between atoms: _268  and  _270
REMARK  109  A    between atoms: _270  and  _271
REMARK  110  A    between atoms: _270  and  _273
REMARK  111  A    between atoms: _275  and  _277
REMARK  112  A    between atoms: _277  and  _278
REMARK  113  A    between atoms: _277  and  _280
REMARK  114  A    between atoms: _280  and  _281
REMARK  115  A    between atoms: _284  and  _286
REMARK  116  A    between atoms: _286  and  _287
REMARK  117  A    between atoms: _290  and  _292
REMARK  118  A    between atoms: _292  and  _293
REMARK  119  A    between atoms: _292  and  _295
REMARK  120  A    between atoms: _298  and  _300
REMARK  121  A    between atoms: _300  and  _301
REMARK  122  A    between atoms: _303  and  _305
REMARK  123  A    between atoms: _305  and  _306
REMARK  124  A    between atoms: _305  and  _308
REMARK  125  A    between atoms: _308  and  _309
REMARK  126  A    between atoms: _309  and  _310
REMARK  127  A    between atoms: _312  and  _314
REMARK  128  A    between atoms: _314  and  _315
REMARK  129  A    between atoms: _314  and  _317
REMARK  130  A    between atoms: _317  and  _318
REMARK  131  A    between atoms: _320  and  _322
REMARK  132  A    between atoms: _322  and  _323
REMARK  133  A    between atoms: _322  and  _325
REMARK  134  A    between atoms: _325  and  _326
REMARK  135  A    between atoms: _329  and  _331
REMARK  136  A    between atoms: _331  and  _332
REMARK  137  A    between atoms: _331  and  _334
REMARK  138  A    between atoms: _337  and  _339
REMARK  139  A    between atoms: _339  and  _340
REMARK  140  A    between atoms: _339  and  _342
REMARK  141  A    between atoms: _342  and  _343
REMARK  142  A    between atoms: _343  and  _344
REMARK  143  A    between atoms: _347  and  _349
REMARK  144  A    between atoms: _349  and  _350
REMARK  145  A    between atoms: _349  and  _352
REMARK  146  A    between atoms: _352  and  _353
REMARK  147  A    between atoms: _359  and  _361
REMARK  148  A    between atoms: _361  and  _362
REMARK  149  A    between atoms: _361  and  _364
REMARK  150  A    between atoms: _364  and  _365
REMARK  151  A    between atoms: _367  and  _369
REMARK  152  A    between atoms: _369  and  _370
REMARK  153  A    between atoms: _369  and  _372
REMARK  154  A    between atoms: _372  and  _373
REMARK  155  A    between atoms: _376  and  _378
REMARK  156  A    between atoms: _378  and  _379
REMARK  157  A    between atoms: _378  and  _381
REMARK  158  A    between atoms: _381  and  _382
REMARK  159  A    between atoms: _385  and  _387
REMARK  160  A    between atoms: _387  and  _388
REMARK  161  A    between atoms: _387  and  _390
REMARK  162  A    between atoms: _390  and  _391
REMARK  163  A    between atoms: _394  and  _396
REMARK  164  A    between atoms: _396  and  _397
REMARK  165  A    between atoms: _396  and  _399
REMARK  166  A    between atoms: _399  and  _400
REMARK  167  A    between atoms: _405  and  _407
REMARK  168  A    between atoms: _407  and  _408
REMARK  169  A    between atoms: _407  and  _410
REMARK  170  A    between atoms: _410  and  _411
REMARK  171  A    between atoms: _411  and  _412
REMARK  172  A    between atoms: _412  and  _413
REMARK  173  A    between atoms: _413  and  _414
REMARK  174  A    between atoms: _418  and  _420
REMARK  175  A    between atoms: _420  and  _421
REMARK  176  A    between atoms: _420  and  _423
REMARK  177  A    between atoms: _426  and  _428
REMARK  178  A    between atoms: _428  and  _429
REMARK  179  A    between atoms: _428  and  _431
REMARK  180  A    between atoms: _431  and  _432
REMARK  181  A    between atoms: _435  and  _437
REMARK  182  A    between atoms: _437  and  _438
REMARK  183  A    between atoms: _441  and  _443
REMARK  184  A    between atoms: _443  and  _444
REMARK  185  A    between atoms: _443  and  _446
REMARK  186  A    between atoms: _446  and  _447
REMARK  187  A    between atoms: _452  and  _454
REMARK  188  A    between atoms: _454  and  _455
REMARK  189  A    between atoms: _454  and  _457
REMARK  190  A    between atoms: _457  and  _458
REMARK  191  A    between atoms: _463  and  _465
REMARK  192  A    between atoms: _465  and  _466
REMARK  193  A    between atoms: _465  and  _468
REMARK  194  A    between atoms: _468  and  _469
REMARK  195  A    between atoms: _469  and  _470
REMARK  196  A    between atoms: _473  and  _475
REMARK  197  A    between atoms: _475  and  _476
REMARK  198  A    between atoms: _475  and  _478
REMARK  199  A    between atoms: _481  and  _483
REMARK  200  A    between atoms: _483  and  _484
REMARK  201  A    between atoms: _483  and  _486
REMARK  202  A    between atoms: _486  and  _487
REMARK  203  A    between atoms: _490  and  _492
REMARK  204  A    between atoms: _492  and  _493
REMARK  205  A    between atoms: _492  and  _495
REMARK  206  A    between atoms: _495  and  _496
REMARK  207  A    between atoms: _496  and  _497
REMARK  208  A    between atoms: _497  and  _498
REMARK  209  A    between atoms: _507  and  _509
REMARK  210  A    between atoms: _509  and  _510
REMARK  211  A    between atoms: _509  and  _512
REMARK  212  A    between atoms: _512  and  _513
REMARK                            x       y       z     vdW  Elec       q    Type
REMARK                         _______ _______ _______ _____ _____    ______ ____
ROOT
ATOM      1  CA  VAL A   2      39.903 -11.059  29.391  0.00  0.00    +0.148 C 
ENDROOT
BRANCH   1   4
ATOM      2  C   GLU A   1      41.960 -10.481  30.563  0.00  0.00    +0.238 C 
ATOM      3  O   GLU A   1      41.986 -11.567  31.150  0.00  0.00    -0.274 OA
ATOM      4  N   VAL A   2      40.978 -10.138  29.727  0.00  0.00    -0.297 N 
ATOM      5  H   VAL A   2      40.981  -9.188  29.305  0.00  0.00    +0.150 HD
BRANCH   2   6
ATOM      6  CA  GLU A   1      43.073  -9.457  30.779  0.00  0.00    +0.145 C 
BRANCH   6   7
ATOM      7  N   GLU A   1      43.328  -8.713  29.545  0.00  0.00    -0.238 NA
ATOM      8  H   GLU A   1      43.088  -7.702  29.504  0.00  0.00    +0.142 HD
ENDBRANCH   6   7
BRANCH   6   9
ATOM      9  CB  GLU A   1      42.740  -8.516  31.946  0.00  0.00    +0.038 C 
BRANCH   9  10
ATOM     10  CG  GLU A   1      41.265  -8.131  32.059  0.00  0.00    +0.116 C 
BRANCH  10  11
ATOM     11  CD  GLU A   1      40.964  -7.209  33.225  0.00  0.00    +0.365 C 
ATOM     12  OE2 GLU A   1      41.068  -7.651  34.393  0.00  0.00    -0.246 OA
ATOM     13  OE1 GLU A   1      40.594  -6.047  32.964  0.00  0.00    -0.246 OA
ENDBRANCH  10  11
ENDBRANCH   9  10
ENDBRANCH   6   9
ENDBRANCH   2   6
ENDBRANCH   1   4
BRANCH   1  14
ATOM     14  C   VAL A   2      40.458 -12.290  28.662  0.00  0.00    +0.241 C 
ATOM     15  O   VAL A   2      40.117 -13.429  29.002  0.00  0.00    -0.273 OA
ATOM     16  N   LEU A   3      41.317 -12.053  27.670  0.00  0.00    -0.298 N 
ATOM     17  H   LEU A   3      41.528 -11.067  27.414  0.00  0.00    +0.150 HD
BRANCH  16  18
ATOM     18  CA  LEU A   3      41.978 -13.137  26.923  0.00  0.00    +0.137 C 
BRANCH  18  19
ATOM     19  C   LEU A   3      42.844 -13.994  27.846  0.00  0.00    +0.227 C 
ATOM     20  O   LEU A   3      42.810 -15.228  27.772  0.00  0.00    -0.286 OA
ENDBRANCH  18  19
BRANCH  18  21
ATOM     21  CB  LEU A   3      42.814 -12.563  25.779  0.00  0.00    +0.028 C 
BRANCH  21  22
ATOM     22  CG  LEU A   3      41.992 -12.044  24.593  0.00  0.00    +0.002 C 
ATOM     23  CD2 LEU A   3      41.264 -13.194  23.876  0.00  0.00    +0.000 C 
ATOM     24  CD1 LEU A   3      42.867 -11.246  23.634  0.00  0.00    +0.000 C 
ENDBRANCH  21  22
ENDBRANCH  18  21
ENDBRANCH  16  18
ENDBRANCH   1  14
BRANCH   1  25
ATOM     25  CB  VAL A   2      38.780 -10.348  28.561  0.00  0.00    +0.027 C 
ATOM     26  CG2 VAL A   2      38.145  -9.242  29.401  0.00  0.00    +0.002 C 
ATOM     27  CG1 VAL A   2      37.717 -11.348  28.046  0.00  0.00    +0.002 C 
ENDBRANCH   1  25
TORSDOF 12
REMARK  Name = ../refined-set-2016/3fuc/3fuc_pocket.pdb
REMARK  212 active torsions:
REMARK  status: ('A' for Active; 'I' for Inactive)
REMARK    1  A    between atoms: _1  and  _3
REMARK    2  A    between atoms: _3  and  _4
REMARK    3  A    between atoms: _3  and  _6
REMARK    4  A    between atoms: _6  and  _7
REMARK    5  A    between atoms: _10  and  _12
REMARK    6  A    between atoms: _12  and  _13
REMARK    7  A    between atoms: _12  and  _15
REMARK    8  A    between atoms: _17  and  _19
REMARK    9  A    between atoms: _19  and  _20
REMARK   10  A    between atoms: _22  and  _24
REMARK   11  A    between atoms: _24  and  _25
REMARK   12  A    between atoms: _24  and  _27
REMARK   13  A    between atoms: _27  and  _28
REMARK   14  A    between atoms: _30  and  _32
REMARK   15  A    between atoms: _32  and  _33
REMARK   16  A    between atoms: _35  and  _37
REMARK   17  A    between atoms: _37  and  _38
REMARK   18  A    between atoms: _37  and  _40
REMARK   19  A    between atoms: _40  and  _41
REMARK   20  A    between atoms: _44  and  _46
REMARK   21  A    between atoms: _46  and  _47
REMARK   22  A    between atoms: _49  and  _51
REMARK   23  A    between atoms: _51  and  _52
REMARK   24  A    between atoms: _54  and  _56
REMARK   25  A    between atoms: _56  and  _57
REMARK   26  A    between atoms: _56  and  _59
REMARK   27  A    between atoms: _59  and  _60
REMARK   28  A    between atoms: _60  and  _61
REMARK   29  A    between atoms: _61  and  _62
REMARK   30  A    between atoms: _71  and  _73
REMARK   31  A    between atoms: _73  and  _74
REMARK   32  A    between atoms: _73  and  _76
REMARK   33  A    between atoms: _76  and  _77
REMARK   34  A    between atoms: _83  and  _85
REMARK   35  A    between atoms: _85  and  _86
REMARK   36  A    between atoms: _85  and  _88
REMARK   37  A    between atoms: _88  and  _89
REMARK   38  A    between atoms: _94  and  _96
REMARK   39  A    between atoms: _96  and  _97
REMARK   40  A    between atoms: _96  and  _99
REMARK   41  A    between atoms: _99  and  _100
REMARK   42  A    between atoms: _100  and  _101
REMARK   43  A    between atoms: _103  and  _105
REMARK   44  A    between atoms: _105  and  _106
REMARK   45  A    between atoms: _105  and  _108
REMARK   46  A    between atoms: _108  and  _109
REMARK   47  A    between atoms: _114  and  _115
REMARK   48  A    between atoms: _117  and  _119
REMARK   49  A    between atoms: _119  and  _120
REMARK   50  A    between atoms: _119  and  _122
REMARK   51  A    between atoms: _122  and  _123
REMARK   52  A    between atoms: _123  and  _124
REMARK   53  A    between atoms: _127  and  _129
REMARK   54  A    between atoms: _129  and  _130
REMARK   55  A    between atoms: _129  and  _132
REMARK   56  A    between atoms: _132  and  _133
REMARK   57  A    between atoms: _136  and  _138
REMARK   58  A    between atoms: _138  and  _139
REMARK   59  A    between atoms: _138  and  _141
REMARK   60  A    between atoms: _141  and  _142
REMARK   61  A    between atoms: _147  and  _149
REMARK   62  A    between atoms: _149  and  _150
REMARK   63  A    between atoms: _153  and  _155
REMARK   64  A    between atoms: _155  and  _156
REMARK   65  A    between atoms: _159  and  _161
REMARK   66  A    between atoms: _161  and  _162
REMARK   67  A    between atoms: _164  and  _166
REMARK   68  A    between atoms: _166  and  _167
REMARK   69  A    between atoms: _169  and  _171
REMARK   70  A    between atoms: _171  and  _172
REMARK   71  A    between atoms: _171  and  _174
REMARK   72  A    between atoms: _174  and  _175
REMARK   73  A    between atoms: _178  and  _180
REMARK   74  A    between atoms: _180  and  _181
REMARK   75  A    between atoms: _180  and  _183
REMARK   76  A    between atoms: _183  and  _184
REMARK   77  A    between atoms: _189  and  _190
REMARK   78  A    between atoms: _192  and  _194
REMARK   79  A    between atoms: _194  and  _195
REMARK   80  A    between atoms: _194  and  _197
REMARK   81  A    between atoms: _200  and  _202
REMARK   82  A    between atoms: _202  and  _203
REMARK   83  A    between atoms: _202  and  _205
REMARK   84  A    between atoms: _205  and  _206
REMARK   85  A    between atoms: _206  and  _207
REMARK   86  A    between atoms: _209  and  _211
REMARK   87  A    between atoms: _211  and  _212
REMARK   88  A    between atoms: _211  and  _214
REMARK   89  A    between atoms: _214  and  _215
REMARK   90  A    between atoms: _218  and  _220
REMARK   91  A    between atoms: _220  and  _221
REMARK   92  A    between atoms: _223  and  _225
REMARK   93  A    between atoms: _225  and  _226
REMARK   94  A    between atoms: _229  and  _230
REMARK   95  A    between atoms: _235  and  _237
REMARK   96  A    between atoms: _237  and  _238
REMARK   97  A    between atoms: _237  and  _240
REMARK   98  A    between atoms: _240  and  _241
REMARK   99  A    between atoms: _246  and  _248
REMARK  100  A    between atoms: _248  and  _249
REMARK  101  A    between atoms: _248  and  _251
REMARK  102  A    between atoms: _251  and  _252
REMARK  103  A    between atoms: _258  and  _260
REMARK  104  A    between atoms: _260  and  _261
REMARK  105  A    between atoms: _260  and  _263
REMARK  106  A    between atoms: _263  and  _264
REMARK  107  A    between atoms: _264  and  _265
REMARK  108  A    between atoms: _268  and  _270
REMARK  109  A    between atoms: _270  and  _271
REMARK  110  A    between atoms: _270  and  _273
REMARK  111  A    between atoms: _275  and  _277
REMARK  112  A    between atoms: _277  and  _278
REMARK  113  A    between atoms: _277  and  _280
REMARK  114  A    between atoms: _280  and  _281
REMARK  115  A    between atoms: _284  and  _286
REMARK  116  A    between atoms: _286  and  _287
REMARK  117  A    between atoms: _290  and  _292
REMARK  118  A    between atoms: _292  and  _293
REMARK  119  A    between atoms: _292  and  _295
REMARK  120  A    between atoms: _298  and  _300
REMARK  121  A    between atoms: _300  and  _301
REMARK  122  A    between atoms: _303  and  _305
REMARK  123  A    between atoms: _305  and  _306
REMARK  124  A    between atoms: _305  and  _308
REMARK  125  A    between atoms: _308  and  _309
REMARK  126  A    between atoms: _309  and  _310
REMARK  127  A    between atoms: _312  and  _314
REMARK  128  A    between atoms: _314  and  _315
REMARK  129  A    between atoms: _314  and  _317
REMARK  130  A    between atoms: _317  and  _318
REMARK  131  A    between atoms: _320  and  _322
REMARK  132  A    between atoms: _322  and  _323
REMARK  133  A    between atoms: _322  and  _325
REMARK  134  A    between atoms: _325  and  _326
REMARK  135  A    between atoms: _329  and  _331
REMARK  136  A    between atoms: _331  and  _332
REMARK  137  A    between atoms: _331  and  _334
REMARK  138  A    between atoms: _337  and  _339
REMARK  139  A    between atoms: _339  and  _340
REMARK  140  A    between atoms: _339  and  _342
REMARK  141  A    between atoms: _342  and  _343
REMARK  142  A    between atoms: _343  and  _344
REMARK  143  A    between atoms: _347  and  _349
REMARK  144  A    between atoms: _349  and  _350
REMARK  145  A    between atoms: _349  and  _352
REMARK  146  A    between atoms: _352  and  _353
REMARK  147  A    between atoms: _359  and  _361
REMARK  148  A    between atoms: _361  and  _362
REMARK  149  A    between atoms: _361  and  _364
REMARK  150  A    between atoms: _364  and  _365
REMARK  151  A    between atoms: _367  and  _369
REMARK  152  A    between atoms: _369  and  _370
REMARK  153  A    between atoms: _369  and  _372
REMARK  154  A    between atoms: _372  and  _373
REMARK  155  A    between atoms: _376  and  _378
REMARK  156  A    between atoms: _378  and  _379
REMARK  157  A    between atoms: _378  and  _381
REMARK  158  A    between atoms: _381  and  _382
REMARK  159  A    between atoms: _385  and  _387
REMARK  160  A    between atoms: _387  and  _388
REMARK  161  A    between atoms: _387  and  _390
REMARK  162  A    between atoms: _390  and  _391
REMARK  163  A    between atoms: _394  and  _396
REMARK  164  A    between atoms: _396  and  _397
REMARK  165  A    between atoms: _396  and  _399
REMARK  166  A    between atoms: _399  and  _400
REMARK  167  A    between atoms: _405  and  _407
REMARK  168  A    between atoms: _407  and  _408
REMARK  169  A    between atoms: _407  and  _410
REMARK  170  A    between atoms: _410  and  _411
REMARK  171  A    between atoms: _411  and  _412
REMARK  172  A    between atoms: _412  and  _413
REMARK  173  A    between atoms: _413  and  _414
REMARK  174  A    between atoms: _418  and  _420
REMARK  175  A    between atoms: _420  and  _421
REMARK  176  A    between atoms: _420  and  _423
REMARK  177  A    between atoms: _426  and  _428
REMARK  178  A    between atoms: _428  and  _429
REMARK  179  A    between atoms: _428  and  _431
REMARK  180  A    between atoms: _431  and  _432
REMARK  181  A    between atoms: _435  and  _437
REMARK  182  A    between atoms: _437  and  _438
REMARK  183  A    between atoms: _441  and  _443
REMARK  184  A    between atoms: _443  and  _444
REMARK  185  A    between atoms: _443  and  _446
REMARK  186  A    between atoms: _446  and  _447
REMARK  187  A    between atoms: _452  and  _454
REMARK  188  A    between atoms: _454  and  _455
REMARK  189  A    between atoms: _454  and  _457
REMARK  190  A    between atoms: _457  and  _458
REMARK  191  A    between atoms: _463  and  _465
REMARK  192  A    between atoms: _465  and  _466
REMARK  193  A    between atoms: _465  and  _468
REMARK  194  A    between atoms: _468  and  _469
REMARK  195  A    between atoms: _469  and  _470
REMARK  196  A    between atoms: _473  and  _475
REMARK  197  A    between atoms: _475  and  _476
REMARK  198  A    between atoms: _475  and  _478
REMARK  199  A    between atoms: _481  and  _483
REMARK  200  A    between atoms: _483  and  _484
REMARK  201  A    between atoms: _483  and  _486
REMARK  202  A    between atoms: _486  and  _487
REMARK  203  A    between atoms: _490  and  _492
REMARK  204  A    between atoms: _492  and  _493
REMARK  205  A    between atoms: _492  and  _495
REMARK  206  A    between atoms: _495  and  _496
REMARK  207  A    between atoms: _496  and  _497
REMARK  208  A    between atoms: _497  and  _498
REMARK  209  A    between atoms: _507  and  _509
REMARK  210  A    between atoms: _509  and  _510
REMARK  211  A    between atoms: _509  and  _512
REMARK  212  A    between atoms: _512  and  _513
REMARK                            x       y       z     vdW  Elec       q    Type
REMARK                         _______ _______ _______ _____ _____    ______ ____
ROOT
ATOM      1  CA  ARG A   1      37.468  -3.650  19.853  0.00  0.00    +0.145 C 
ENDROOT
BRANCH   1   2
ATOM      2  C   ARG A   1      36.541  -3.338  21.036  0.00  0.00    +0.238 C 
ATOM      3  N   PHE A   2      37.070  -3.462  22.255  0.00  0.00    -0.298 N 
ATOM      4  H   PHE A   2      38.086  -3.673  22.330  0.00  0.00    +0.150 HD
ATOM      5  O   ARG A   1      35.355  -3.012  20.825  0.00  0.00    -0.274 OA
BRANCH   3   6
ATOM      6  CA  PHE A   2      36.300  -3.317  23.495  0.00  0.00    +0.141 C 
BRANCH   6   7
ATOM      7  C   PHE A   2      36.890  -2.187  24.348  0.00  0.00    +0.227 C 
ATOM      8  O   PHE A   2      37.595  -2.457  25.327  0.00  0.00    -0.286 OA
ENDBRANCH   6   7
BRANCH   6   9
ATOM      9  CB  PHE A   2      36.315  -4.632  24.291  0.00  0.00    +0.054 C 
BRANCH   9  10
ATOM     10  CG  PHE A   2      35.823  -5.822  23.529  0.00  0.00    -0.020 A 
ATOM     11  CD2 PHE A   2      34.474  -5.992  23.261  0.00  0.00    -0.004 A 
ATOM     12  CE2 PHE A   2      34.018  -7.128  22.584  0.00  0.00    -0.000 A 
ATOM     13  CZ  PHE A   2      34.916  -8.105  22.172  0.00  0.00    -0.000 A 
ATOM     14  CE1 PHE A   2      36.263  -7.965  22.459  0.00  0.00    -0.000 A 
ATOM     15  CD1 PHE A   2      36.717  -6.815  23.126  0.00  0.00    -0.004 A 
ENDBRANCH   9  10
ENDBRANCH   6   9
ENDBRANCH   3   6
ENDBRANCH   1   2
BRANCH   1  16
ATOM     16  N   ARG A   1      38.802  -3.097  20.049  0.00  0.00    -0.238 NA
ATOM     17  H   ARG A   1      39.614  -3.744  20.101  0.00  0.00    +0.142 HD
ENDBRANCH   1  16
BRANCH   1  18
ATOM     18  CB  ARG A   1      37.550  -5.165  19.653  0.00  0.00    +0.030 C 
BRANCH  18  19
ATOM     19  CG  ARG A   1      36.217  -5.873  19.717  0.00  0.00    +0.045 C 
BRANCH  19  20
ATOM     20  CD  ARG A   1      35.365  -5.764  18.472  0.00  0.00    +0.174 C 
BRANCH  20  21
ATOM     21  NE  ARG A   1      34.710  -4.456  18.356  0.00  0.00    -0.265 N 
ATOM     22  HE  ARG A   1      34.963  -3.719  19.044  0.00  0.00    +0.259 HD
ATOM     23  CZ  ARG A   1      33.821  -4.162  17.431  0.00  0.00    +0.342 C 
ATOM     24  NH2 ARG A   1      33.298  -2.937  17.377  0.00  0.00    -0.292 N 
ATOM     25 HH21 ARG A   1      33.593  -2.215  18.065  0.00  0.00    +0.255 HD
ATOM     26 HH22 ARG A   1      32.595  -2.703  16.647  0.00  0.00    +0.255 HD
ATOM     27  NH1 ARG A   1      33.462  -5.072  16.527  0.00  0.00    -0.292 N 
ATOM     28 HH11 ARG A   1      33.885  -6.022  16.549  0.00  0.00    +0.255 HD
ATOM     29 HH12 ARG A   1      32.759  -4.833  15.799  0.00  0.00    +0.255 HD
ENDBRANCH  20  21
ENDBRANCH  19  20
ENDBRANCH  18  19
ENDBRANCH   1  18
TORSDOF 10
REMARK  Name = ../refined-set-2016/3fuc/3fuc_pocket.pdb
REMARK  212 active torsions:
REMARK  status: ('A' for Active; 'I' for Inactive)
REMARK    1  A    between atoms: _1  and  _3
REMARK    2  A    between atoms: _3  and  _4
REMARK    3  A    between atoms: _3  and  _6
REMARK    4  A    between atoms: _6  and  _7
REMARK    5  A    between atoms: _10  and  _12
REMARK    6  A    between atoms: _12  and  _13
REMARK    7  A    between atoms: _12  and  _15
REMARK    8  A    between atoms: _17  and  _19
REMARK    9  A    between atoms: _19  and  _20
REMARK   10  A    between atoms: _22  and  _24
REMARK   11  A    between atoms: _24  and  _25
REMARK   12  A    between atoms: _24  and  _27
REMARK   13  A    between atoms: _27  and  _28
REMARK   14  A    between atoms: _30  and  _32
REMARK   15  A    between atoms: _32  and  _33
REMARK   16  A    between atoms: _35  and  _37
REMARK   17  A    between atoms: _37  and  _38
REMARK   18  A    between atoms: _37  and  _40
REMARK   19  A    between atoms: _40  and  _41
REMARK   20  A    between atoms: _44  and  _46
REMARK   21  A    between atoms: _46  and  _47
REMARK   22  A    between atoms: _49  and  _51
REMARK   23  A    between atoms: _51  and  _52
REMARK   24  A    between atoms: _54  and  _56
REMARK   25  A    between atoms: _56  and  _57
REMARK   26  A    between atoms: _56  and  _59
REMARK   27  A    between atoms: _59  and  _60
REMARK   28  A    between atoms: _60  and  _61
REMARK   29  A    between atoms: _61  and  _62
REMARK   30  A    between atoms: _71  and  _73
REMARK   31  A    between atoms: _73  and  _74
REMARK   32  A    between atoms: _73  and  _76
REMARK   33  A    between atoms: _76  and  _77
REMARK   34  A    between atoms: _83  and  _85
REMARK   35  A    between atoms: _85  and  _86
REMARK   36  A    between atoms: _85  and  _88
REMARK   37  A    between atoms: _88  and  _89
REMARK   38  A    between atoms: _94  and  _96
REMARK   39  A    between atoms: _96  and  _97
REMARK   40  A    between atoms: _96  and  _99
REMARK   41  A    between atoms: _99  and  _100
REMARK   42  A    between atoms: _100  and  _101
REMARK   43  A    between atoms: _103  and  _105
REMARK   44  A    between atoms: _105  and  _106
REMARK   45  A    between atoms: _105  and  _108
REMARK   46  A    between atoms: _108  and  _109
REMARK   47  A    between atoms: _114  and  _115
REMARK   48  A    between atoms: _117  and  _119
REMARK   49  A    between atoms: _119  and  _120
REMARK   50  A    between atoms: _119  and  _122
REMARK   51  A    between atoms: _122  and  _123
REMARK   52  A    between atoms: _123  and  _124
REMARK   53  A    between atoms: _127  and  _129
REMARK   54  A    between atoms: _129  and  _130
REMARK   55  A    between atoms: _129  and  _132
REMARK   56  A    between atoms: _132  and  _133
REMARK   57  A    between atoms: _136  and  _138
REMARK   58  A    between atoms: _138  and  _139
REMARK   59  A    between atoms: _138  and  _141
REMARK   60  A    between atoms: _141  and  _142
REMARK   61  A    between atoms: _147  and  _149
REMARK   62  A    between atoms: _149  and  _150
REMARK   63  A    between atoms: _153  and  _155
REMARK   64  A    between atoms: _155  and  _156
REMARK   65  A    between atoms: _159  and  _161
REMARK   66  A    between atoms: _161  and  _162
REMARK   67  A    between atoms: _164  and  _166
REMARK   68  A    between atoms: _166  and  _167
REMARK   69  A    between atoms: _169  and  _171
REMARK   70  A    between atoms: _171  and  _172
REMARK   71  A    between atoms: _171  and  _174
REMARK   72  A    between atoms: _174  and  _175
REMARK   73  A    between atoms: _178  and  _180
REMARK   74  A    between atoms: _180  and  _181
REMARK   75  A    between atoms: _180  and  _183
REMARK   76  A    between atoms: _183  and  _184
REMARK   77  A    between atoms: _189  and  _190
REMARK   78  A    between atoms: _192  and  _194
REMARK   79  A    between atoms: _194  and  _195
REMARK   80  A    between atoms: _194  and  _197
REMARK   81  A    between atoms: _200  and  _202
REMARK   82  A    between atoms: _202  and  _203
REMARK   83  A    between atoms: _202  and  _205
REMARK   84  A    between atoms: _205  and  _206
REMARK   85  A    between atoms: _206  and  _207
REMARK   86  A    between atoms: _209  and  _211
REMARK   87  A    between atoms: _211  and  _212
REMARK   88  A    between atoms: _211  and  _214
REMARK   89  A    between atoms: _214  and  _215
REMARK   90  A    between atoms: _218  and  _220
REMARK   91  A    between atoms: _220  and  _221
REMARK   92  A    between atoms: _223  and  _225
REMARK   93  A    between atoms: _225  and  _226
REMARK   94  A    between atoms: _229  and  _230
REMARK   95  A    between atoms: _235  and  _237
REMARK   96  A    between atoms: _237  and  _238
REMARK   97  A    between atoms: _237  and  _240
REMARK   98  A    between atoms: _240  and  _241
REMARK   99  A    between atoms: _246  and  _248
REMARK  100  A    between atoms: _248  and  _249
REMARK  101  A    between atoms: _248  and  _251
REMARK  102  A    between atoms: _251  and  _252
REMARK  103  A    between atoms: _258  and  _260
REMARK  104  A    between atoms: _260  and  _261
REMARK  105  A    between atoms: _260  and  _263
REMARK  106  A    between atoms: _263  and  _264
REMARK  107  A    between atoms: _264  and  _265
REMARK  108  A    between atoms: _268  and  _270
REMARK  109  A    between atoms: _270  and  _271
REMARK  110  A    between atoms: _270  and  _273
REMARK  111  A    between atoms: _275  and  _277
REMARK  112  A    between atoms: _277  and  _278
REMARK  113  A    between atoms: _277  and  _280
REMARK  114  A    between atoms: _280  and  _281
REMARK  115  A    between atoms: _284  and  _286
REMARK  116  A    between atoms: _286  and  _287
REMARK  117  A    between atoms: _290  and  _292
REMARK  118  A    between atoms: _292  and  _293
REMARK  119  A    between atoms: _292  and  _295
REMARK  120  A    between atoms: _298  and  _300
REMARK  121  A    between atoms: _300  and  _301
REMARK  122  A    between atoms: _303  and  _305
REMARK  123  A    between atoms: _305  and  _306
REMARK  124  A    between atoms: _305  and  _308
REMARK  125  A    between atoms: _308  and  _309
REMARK  126  A    between atoms: _309  and  _310
REMARK  127  A    between atoms: _312  and  _314
REMARK  128  A    between atoms: _314  and  _315
REMARK  129  A    between atoms: _314  and  _317
REMARK  130  A    between atoms: _317  and  _318
REMARK  131  A    between atoms: _320  and  _322
REMARK  132  A    between atoms: _322  and  _323
REMARK  133  A    between atoms: _322  and  _325
REMARK  134  A    between atoms: _325  and  _326
REMARK  135  A    between atoms: _329  and  _331
REMARK  136  A    between atoms: _331  and  _332
REMARK  137  A    between atoms: _331  and  _334
REMARK  138  A    between atoms: _337  and  _339
REMARK  139  A    between atoms: _339  and  _340
REMARK  140  A    between atoms: _339  and  _342
REMARK  141  A    between atoms: _342  and  _343
REMARK  142  A    between atoms: _343  and  _344
REMARK  143  A    between atoms: _347  and  _349
REMARK  144  A    between atoms: _349  and  _350
REMARK  145  A    between atoms: _349  and  _352
REMARK  146  A    between atoms: _352  and  _353
REMARK  147  A    between atoms: _359  and  _361
REMARK  148  A    between atoms: _361  and  _362
REMARK  149  A    between atoms: _361  and  _364
REMARK  150  A    between atoms: _364  and  _365
REMARK  151  A    between atoms: _367  and  _369
REMARK  152  A    between atoms: _369  and  _370
REMARK  153  A    between atoms: _369  and  _372
REMARK  154  A    between atoms: _372  and  _373
REMARK  155  A    between atoms: _376  and  _378
REMARK  156  A    between atoms: _378  and  _379
REMARK  157  A    between atoms: _378  and  _381
REMARK  158  A    between atoms: _381  and  _382
REMARK  159  A    between atoms: _385  and  _387
REMARK  160  A    between atoms: _387  and  _388
REMARK  161  A    between atoms: _387  and  _390
REMARK  162  A    between atoms: _390  and  _391
REMARK  163  A    between atoms: _394  and  _396
REMARK  164  A    between atoms: _396  and  _397
REMARK  165  A    between atoms: _396  and  _399
REMARK  166  A    between atoms: _399  and  _400
REMARK  167  A    between atoms: _405  and  _407
REMARK  168  A    between atoms: _407  and  _408
REMARK  169  A    between atoms: _407  and  _410
REMARK  170  A    between atoms: _410  and  _411
REMARK  171  A    between atoms: _411  and  _412
REMARK  172  A    between atoms: _412  and  _413
REMARK  173  A    between atoms: _413  and  _414
REMARK  174  A    between atoms: _418  and  _420
REMARK  175  A    between atoms: _420  and  _421
REMARK  176  A    between atoms: _420  and  _423
REMARK  177  A    between atoms: _426  and  _428
REMARK  178  A    between atoms: _428  and  _429
REMARK  179  A    between atoms: _428  and  _431
REMARK  180  A    between atoms: _431  and  _432
REMARK  181  A    between atoms: _435  and  _437
REMARK  182  A    between atoms: _437  and  _438
REMARK  183  A    between atoms: _441  and  _443
REMARK  184  A    between atoms: _443  and  _444
REMARK  185  A    between atoms: _443  and  _446
REMARK  186  A    between atoms: _446  and  _447
REMARK  187  A    between atoms: _452  and  _454
REMARK  188  A    between atoms: _454  and  _455
REMARK  189  A    between atoms: _454  and  _457
REMARK  190  A    between atoms: _457  and  _458
REMARK  191  A    between atoms: _463  and  _465
REMARK  192  A    between atoms: _465  and  _466
REMARK  193  A    between atoms: _465  and  _468
REMARK  194  A    between atoms: _468  and  _469
REMARK  195  A    between atoms: _469  and  _470
REMARK  196  A    between atoms: _473  and  _475
REMARK  197  A    between atoms: _475  and  _476
REMARK  198  A    between atoms: _475  and  _478
REMARK  199  A    between atoms: _481  and  _483
REMARK  200  A    between atoms: _483  and  _484
REMARK  201  A    between atoms: _483  and  _486
REMARK  202  A    between atoms: _486  and  _487
REMARK  203  A    between atoms: _490  and  _492
REMARK  204  A    between atoms: _492  and  _493
REMARK  205  A    between atoms: _492  and  _495
REMARK  206  A    between atoms: _495  and  _496
REMARK  207  A    between atoms: _496  and  _497
REMARK  208  A    between atoms: _497  and  _498
REMARK  209  A    between atoms: _507  and  _509
REMARK  210  A    between atoms: _509  and  _510
REMARK  211  A    between atoms: _509  and  _512
REMARK  212  A    between atoms: _512  and  _513
REMARK                            x       y       z     vdW  Elec       q    Type
REMARK                         _______ _______ _______ _____ _____    ______ ____
ROOT
ATOM      1  O   HOH     1      26.618  -7.770  21.313  0.00  0.00    +0.000 OA
ENDROOT
TORSDOF 0
REMARK  Name = ../refined-set-2016/3fuc/3fuc_pocket.pdb
REMARK  212 active torsions:
REMARK  status: ('A' for Active; 'I' for Inactive)
REMARK    1  A    between atoms: _1  and  _3
REMARK    2  A    between atoms: _3  and  _4
REMARK    3  A    between atoms: _3  and  _6
REMARK    4  A    between atoms: _6  and  _7
REMARK    5  A    between atoms: _10  and  _12
REMARK    6  A    between atoms: _12  and  _13
REMARK    7  A    between atoms: _12  and  _15
REMARK    8  A    between atoms: _17  and  _19
REMARK    9  A    between atoms: _19  and  _20
REMARK   10  A    between atoms: _22  and  _24
REMARK   11  A    between atoms: _24  and  _25
REMARK   12  A    between atoms: _24  and  _27
REMARK   13  A    between atoms: _27  and  _28
REMARK   14  A    between atoms: _30  and  _32
REMARK   15  A    between atoms: _32  and  _33
REMARK   16  A    between atoms: _35  and  _37
REMARK   17  A    between atoms: _37  and  _38
REMARK   18  A    between atoms: _37  and  _40
REMARK   19  A    between atoms: _40  and  _41
REMARK   20  A    between atoms: _44  and  _46
REMARK   21  A    between atoms: _46  and  _47
REMARK   22  A    between atoms: _49  and  _51
REMARK   23  A    between atoms: _51  and  _52
REMARK   24  A    between atoms: _54  and  _56
REMARK   25  A    between atoms: _56  and  _57
REMARK   26  A    between atoms: _56  and  _59
REMARK   27  A    between atoms: _59  and  _60
REMARK   28  A    between atoms: _60  and  _61
REMARK   29  A    between atoms: _61  and  _62
REMARK   30  A    between atoms: _71  and  _73
REMARK   31  A    between atoms: _73  and  _74
REMARK   32  A    between atoms: _73  and  _76
REMARK   33  A    between atoms: _76  and  _77
REMARK   34  A    between atoms: _83  and  _85
REMARK   35  A    between atoms: _85  and  _86
REMARK   36  A    between atoms: _85  and  _88
REMARK   37  A    between atoms: _88  and  _89
REMARK   38  A    between atoms: _94  and  _96
REMARK   39  A    between atoms: _96  and  _97
REMARK   40  A    between atoms: _96  and  _99
REMARK   41  A    between atoms: _99  and  _100
REMARK   42  A    between atoms: _100  and  _101
REMARK   43  A    between atoms: _103  and  _105
REMARK   44  A    between atoms: _105  and  _106
REMARK   45  A    between atoms: _105  and  _108
REMARK   46  A    between atoms: _108  and  _109
REMARK   47  A    between atoms: _114  and  _115
REMARK   48  A    between atoms: _117  and  _119
REMARK   49  A    between atoms: _119  and  _120
REMARK   50  A    between atoms: _119  and  _122
REMARK   51  A    between atoms: _122  and  _123
REMARK   52  A    between atoms: _123  and  _124
REMARK   53  A    between atoms: _127  and  _129
REMARK   54  A    between atoms: _129  and  _130
REMARK   55  A    between atoms: _129  and  _132
REMARK   56  A    between atoms: _132  and  _133
REMARK   57  A    between atoms: _136  and  _138
REMARK   58  A    between atoms: _138  and  _139
REMARK   59  A    between atoms: _138  and  _141
REMARK   60  A    between atoms: _141  and  _142
REMARK   61  A    between atoms: _147  and  _149
REMARK   62  A    between atoms: _149  and  _150
REMARK   63  A    between atoms: _153  and  _155
REMARK   64  A    between atoms: _155  and  _156
REMARK   65  A    between atoms: _159  and  _161
REMARK   66  A    between atoms: _161  and  _162
REMARK   67  A    between atoms: _164  and  _166
REMARK   68  A    between atoms: _166  and  _167
REMARK   69  A    between atoms: _169  and  _171
REMARK   70  A    between atoms: _171  and  _172
REMARK   71  A    between atoms: _171  and  _174
REMARK   72  A    between atoms: _174  and  _175
REMARK   73  A    between atoms: _178  and  _180
REMARK   74  A    between atoms: _180  and  _181
REMARK   75  A    between atoms: _180  and  _183
REMARK   76  A    between atoms: _183  and  _184
REMARK   77  A    between atoms: _189  and  _190
REMARK   78  A    between atoms: _192  and  _194
REMARK   79  A    between atoms: _194  and  _195
REMARK   80  A    between atoms: _194  and  _197
REMARK   81  A    between atoms: _200  and  _202
REMARK   82  A    between atoms: _202  and  _203
REMARK   83  A    between atoms: _202  and  _205
REMARK   84  A    between atoms: _205  and  _206
REMARK   85  A    between atoms: _206  and  _207
REMARK   86  A    between atoms: _209  and  _211
REMARK   87  A    between atoms: _211  and  _212
REMARK   88  A    between atoms: _211  and  _214
REMARK   89  A    between atoms: _214  and  _215
REMARK   90  A    between atoms: _218  and  _220
REMARK   91  A    between atoms: _220  and  _221
REMARK   92  A    between atoms: _223  and  _225
REMARK   93  A    between atoms: _225  and  _226
REMARK   94  A    between atoms: _229  and  _230
REMARK   95  A    between atoms: _235  and  _237
REMARK   96  A    between atoms: _237  and  _238
REMARK   97  A    between atoms: _237  and  _240
REMARK   98  A    between atoms: _240  and  _241
REMARK   99  A    between atoms: _246  and  _248
REMARK  100  A    between atoms: _248  and  _249
REMARK  101  A    between atoms: _248  and  _251
REMARK  102  A    between atoms: _251  and  _252
REMARK  103  A    between atoms: _258  and  _260
REMARK  104  A    between atoms: _260  and  _261
REMARK  105  A    between atoms: _260  and  _263
REMARK  106  A    between atoms: _263  and  _264
REMARK  107  A    between atoms: _264  and  _265
REMARK  108  A    between atoms: _268  and  _270
REMARK  109  A    between atoms: _270  and  _271
REMARK  110  A    between atoms: _270  and  _273
REMARK  111  A    between atoms: _275  and  _277
REMARK  112  A    between atoms: _277  and  _278
REMARK  113  A    between atoms: _277  and  _280
REMARK  114  A    between atoms: _280  and  _281
REMARK  115  A    between atoms: _284  and  _286
REMARK  116  A    between atoms: _286  and  _287
REMARK  117  A    between atoms: _290  and  _292
REMARK  118  A    between atoms: _292  and  _293
REMARK  119  A    between atoms: _292  and  _295
REMARK  120  A    between atoms: _298  and  _300
REMARK  121  A    between atoms: _300  and  _301
REMARK  122  A    between atoms: _303  and  _305
REMARK  123  A    between atoms: _305  and  _306
REMARK  124  A    between atoms: _305  and  _308
REMARK  125  A    between atoms: _308  and  _309
REMARK  126  A    between atoms: _309  and  _310
REMARK  127  A    between atoms: _312  and  _314
REMARK  128  A    between atoms: _314  and  _315
REMARK  129  A    between atoms: _314  and  _317
REMARK  130  A    between atoms: _317  and  _318
REMARK  131  A    between atoms: _320  and  _322
REMARK  132  A    between atoms: _322  and  _323
REMARK  133  A    between atoms: _322  and  _325
REMARK  134  A    between atoms: _325  and  _326
REMARK  135  A    between atoms: _329  and  _331
REMARK  136  A    between atoms: _331  and  _332
REMARK  137  A    between atoms: _331  and  _334
REMARK  138  A    between atoms: _337  and  _339
REMARK  139  A    between atoms: _339  and  _340
REMARK  140  A    between atoms: _339  and  _342
REMARK  141  A    between atoms: _342  and  _343
REMARK  142  A    between atoms: _343  and  _344
REMARK  143  A    between atoms: _347  and  _349
REMARK  144  A    between atoms: _349  and  _350
REMARK  145  A    between atoms: _349  and  _352
REMARK  146  A    between atoms: _352  and  _353
REMARK  147  A    between atoms: _359  and  _361
REMARK  148  A    between atoms: _361  and  _362
REMARK  149  A    between atoms: _361  and  _364
REMARK  150  A    between atoms: _364  and  _365
REMARK  151  A    between atoms: _367  and  _369
REMARK  152  A    between atoms: _369  and  _370
REMARK  153  A    between atoms: _369  and  _372
REMARK  154  A    between atoms: _372  and  _373
REMARK  155  A    between atoms: _376  and  _378
REMARK  156  A    between atoms: _378  and  _379
REMARK  157  A    between atoms: _378  and  _381
REMARK  158  A    between atoms: _381  and  _382
REMARK  159  A    between atoms: _385  and  _387
REMARK  160  A    between atoms: _387  and  _388
REMARK  161  A    between atoms: _387  and  _390
REMARK  162  A    between atoms: _390  and  _391
REMARK  163  A    between atoms: _394  and  _396
REMARK  164  A    between atoms: _396  and  _397
REMARK  165  A    between atoms: _396  and  _399
REMARK  166  A    between atoms: _399  and  _400
REMARK  167  A    between atoms: _405  and  _407
REMARK  168  A    between atoms: _407  and  _408
REMARK  169  A    between atoms: _407  and  _410
REMARK  170  A    between atoms: _410  and  _411
REMARK  171  A    between atoms: _411  and  _412
REMARK  172  A    between atoms: _412  and  _413
REMARK  173  A    between atoms: _413  and  _414
REMARK  174  A    between atoms: _418  and  _420
REMARK  175  A    between atoms: _420  and  _421
REMARK  176  A    between atoms: _420  and  _423
REMARK  177  A    between atoms: _426  and  _428
REMARK  178  A    between atoms: _428  and  _429
REMARK  179  A    between atoms: _428  and  _431
REMARK  180  A    between atoms: _431  and  _432
REMARK  181  A    between atoms: _435  and  _437
REMARK  182  A    between atoms: _437  and  _438
REMARK  183  A    between atoms: _441  and  _443
REMARK  184  A    between atoms: _443  and  _444
REMARK  185  A    between atoms: _443  and  _446
REMARK  186  A    between atoms: _446  and  _447
REMARK  187  A    between atoms: _452  and  _454
REMARK  188  A    between atoms: _454  and  _455
REMARK  189  A    between atoms: _454  and  _457
REMARK  190  A    between atoms: _457  and  _458
REMARK  191  A    between atoms: _463  and  _465
REMARK  192  A    between atoms: _465  and  _466
REMARK  193  A    between atoms: _465  and  _468
REMARK  194  A    between atoms: _468  and  _469
REMARK  195  A    between atoms: _469  and  _470
REMARK  196  A    between atoms: _473  and  _475
REMARK  197  A    between atoms: _475  and  _476
REMARK  198  A    between atoms: _475  and  _478
REMARK  199  A    between atoms: _481  and  _483
REMARK  200  A    between atoms: _483  and  _484
REMARK  201  A    between atoms: _483  and  _486
REMARK  202  A    between atoms: _486  and  _487
REMARK  203  A    between atoms: _490  and  _492
REMARK  204  A    between atoms: _492  and  _493
REMARK  205  A    between atoms: _492  and  _495
REMARK  206  A    between atoms: _495  and  _496
REMARK  207  A    between atoms: _496  and  _497
REMARK  208  A    between atoms: _497  and  _498
REMARK  209  A    between atoms: _507  and  _509
REMARK  210  A    between atoms: _509  and  _510
REMARK  211  A    between atoms: _509  and  _512
REMARK  212  A    between atoms: _512  and  _513
REMARK                            x       y       z     vdW  Elec       q    Type
REMARK                         _______ _______ _______ _____ _____    ______ ____
ROOT
ATOM      1  O   HOH     1      27.967   0.818  28.325  0.00  0.00    +0.000 OA
ENDROOT
TORSDOF 0
REMARK  Name = ../refined-set-2016/3fuc/3fuc_pocket.pdb
REMARK  212 active torsions:
REMARK  status: ('A' for Active; 'I' for Inactive)
REMARK    1  A    between atoms: _1  and  _3
REMARK    2  A    between atoms: _3  and  _4
REMARK    3  A    between atoms: _3  and  _6
REMARK    4  A    between atoms: _6  and  _7
REMARK    5  A    between atoms: _10  and  _12
REMARK    6  A    between atoms: _12  and  _13
REMARK    7  A    between atoms: _12  and  _15
REMARK    8  A    between atoms: _17  and  _19
REMARK    9  A    between atoms: _19  and  _20
REMARK   10  A    between atoms: _22  and  _24
REMARK   11  A    between atoms: _24  and  _25
REMARK   12  A    between atoms: _24  and  _27
REMARK   13  A    between atoms: _27  and  _28
REMARK   14  A    between atoms: _30  and  _32
REMARK   15  A    between atoms: _32  and  _33
REMARK   16  A    between atoms: _35  and  _37
REMARK   17  A    between atoms: _37  and  _38
REMARK   18  A    between atoms: _37  and  _40
REMARK   19  A    between atoms: _40  and  _41
REMARK   20  A    between atoms: _44  and  _46
REMARK   21  A    between atoms: _46  and  _47
REMARK   22  A    between atoms: _49  and  _51
REMARK   23  A    between atoms: _51  and  _52
REMARK   24  A    between atoms: _54  and  _56
REMARK   25  A    between atoms: _56  and  _57
REMARK   26  A    between atoms: _56  and  _59
REMARK   27  A    between atoms: _59  and  _60
REMARK   28  A    between atoms: _60  and  _61
REMARK   29  A    between atoms: _61  and  _62
REMARK   30  A    between atoms: _71  and  _73
REMARK   31  A    between atoms: _73  and  _74
REMARK   32  A    between atoms: _73  and  _76
REMARK   33  A    between atoms: _76  and  _77
REMARK   34  A    between atoms: _83  and  _85
REMARK   35  A    between atoms: _85  and  _86
REMARK   36  A    between atoms: _85  and  _88
REMARK   37  A    between atoms: _88  and  _89
REMARK   38  A    between atoms: _94  and  _96
REMARK   39  A    between atoms: _96  and  _97
REMARK   40  A    between atoms: _96  and  _99
REMARK   41  A    between atoms: _99  and  _100
REMARK   42  A    between atoms: _100  and  _101
REMARK   43  A    between atoms: _103  and  _105
REMARK   44  A    between atoms: _105  and  _106
REMARK   45  A    between atoms: _105  and  _108
REMARK   46  A    between atoms: _108  and  _109
REMARK   47  A    between atoms: _114  and  _115
REMARK   48  A    between atoms: _117  and  _119
REMARK   49  A    between atoms: _119  and  _120
REMARK   50  A    between atoms: _119  and  _122
REMARK   51  A    between atoms: _122  and  _123
REMARK   52  A    between atoms: _123  and  _124
REMARK   53  A    between atoms: _127  and  _129
REMARK   54  A    between atoms: _129  and  _130
REMARK   55  A    between atoms: _129  and  _132
REMARK   56  A    between atoms: _132  and  _133
REMARK   57  A    between atoms: _136  and  _138
REMARK   58  A    between atoms: _138  and  _139
REMARK   59  A    between atoms: _138  and  _141
REMARK   60  A    between atoms: _141  and  _142
REMARK   61  A    between atoms: _147  and  _149
REMARK   62  A    between atoms: _149  and  _150
REMARK   63  A    between atoms: _153  and  _155
REMARK   64  A    between atoms: _155  and  _156
REMARK   65  A    between atoms: _159  and  _161
REMARK   66  A    between atoms: _161  and  _162
REMARK   67  A    between atoms: _164  and  _166
REMARK   68  A    between atoms: _166  and  _167
REMARK   69  A    between atoms: _169  and  _171
REMARK   70  A    between atoms: _171  and  _172
REMARK   71  A    between atoms: _171  and  _174
REMARK   72  A    between atoms: _174  and  _175
REMARK   73  A    between atoms: _178  and  _180
REMARK   74  A    between atoms: _180  and  _181
REMARK   75  A    between atoms: _180  and  _183
REMARK   76  A    between atoms: _183  and  _184
REMARK   77  A    between atoms: _189  and  _190
REMARK   78  A    between atoms: _192  and  _194
REMARK   79  A    between atoms: _194  and  _195
REMARK   80  A    between atoms: _194  and  _197
REMARK   81  A    between atoms: _200  and  _202
REMARK   82  A    between atoms: _202  and  _203
REMARK   83  A    between atoms: _202  and  _205
REMARK   84  A    between atoms: _205  and  _206
REMARK   85  A    between atoms: _206  and  _207
REMARK   86  A    between atoms: _209  and  _211
REMARK   87  A    between atoms: _211  and  _212
REMARK   88  A    between atoms: _211  and  _214
REMARK   89  A    between atoms: _214  and  _215
REMARK   90  A    between atoms: _218  and  _220
REMARK   91  A    between atoms: _220  and  _221
REMARK   92  A    between atoms: _223  and  _225
REMARK   93  A    between atoms: _225  and  _226
REMARK   94  A    between atoms: _229  and  _230
REMARK   95  A    between atoms: _235  and  _237
REMARK   96  A    between atoms: _237  and  _238
REMARK   97  A    between atoms: _237  and  _240
REMARK   98  A    between atoms: _240  and  _241
REMARK   99  A    between atoms: _246  and  _248
REMARK  100  A    between atoms: _248  and  _249
REMARK  101  A    between atoms: _248  and  _251
REMARK  102  A    between atoms: _251  and  _252
REMARK  103  A    between atoms: _258  and  _260
REMARK  104  A    between atoms: _260  and  _261
REMARK  105  A    between atoms: _260  and  _263
REMARK  106  A    between atoms: _263  and  _264
REMARK  107  A    between atoms: _264  and  _265
REMARK  108  A    between atoms: _268  and  _270
REMARK  109  A    between atoms: _270  and  _271
REMARK  110  A    between atoms: _270  and  _273
REMARK  111  A    between atoms: _275  and  _277
REMARK  112  A    between atoms: _277  and  _278
REMARK  113  A    between atoms: _277  and  _280
REMARK  114  A    between atoms: _280  and  _281
REMARK  115  A    between atoms: _284  and  _286
REMARK  116  A    between atoms: _286  and  _287
REMARK  117  A    between atoms: _290  and  _292
REMARK  118  A    between atoms: _292  and  _293
REMARK  119  A    between atoms: _292  and  _295
REMARK  120  A    between atoms: _298  and  _300
REMARK  121  A    between atoms: _300  and  _301
REMARK  122  A    between atoms: _303  and  _305
REMARK  123  A    between atoms: _305  and  _306
REMARK  124  A    between atoms: _305  and  _308
REMARK  125  A    between atoms: _308  and  _309
REMARK  126  A    between atoms: _309  and  _310
REMARK  127  A    between atoms: _312  and  _314
REMARK  128  A    between atoms: _314  and  _315
REMARK  129  A    between atoms: _314  and  _317
REMARK  130  A    between atoms: _317  and  _318
REMARK  131  A    between atoms: _320  and  _322
REMARK  132  A    between atoms: _322  and  _323
REMARK  133  A    between atoms: _322  and  _325
REMARK  134  A    between atoms: _325  and  _326
REMARK  135  A    between atoms: _329  and  _331
REMARK  136  A    between atoms: _331  and  _332
REMARK  137  A    between atoms: _331  and  _334
REMARK  138  A    between atoms: _337  and  _339
REMARK  139  A    between atoms: _339  and  _340
REMARK  140  A    between atoms: _339  and  _342
REMARK  141  A    between atoms: _342  and  _343
REMARK  142  A    between atoms: _343  and  _344
REMARK  143  A    between atoms: _347  and  _349
REMARK  144  A    between atoms: _349  and  _350
REMARK  145  A    between atoms: _349  and  _352
REMARK  146  A    between atoms: _352  and  _353
REMARK  147  A    between atoms: _359  and  _361
REMARK  148  A    between atoms: _361  and  _362
REMARK  149  A    between atoms: _361  and  _364
REMARK  150  A    between atoms: _364  and  _365
REMARK  151  A    between atoms: _367  and  _369
REMARK  152  A    between atoms: _369  and  _370
REMARK  153  A    between atoms: _369  and  _372
REMARK  154  A    between atoms: _372  and  _373
REMARK  155  A    between atoms: _376  and  _378
REMARK  156  A    between atoms: _378  and  _379
REMARK  157  A    between atoms: _378  and  _381
REMARK  158  A    between atoms: _381  and  _382
REMARK  159  A    between atoms: _385  and  _387
REMARK  160  A    between atoms: _387  and  _388
REMARK  161  A    between atoms: _387  and  _390
REMARK  162  A    between atoms: _390  and  _391
REMARK  163  A    between atoms: _394  and  _396
REMARK  164  A    between atoms: _396  and  _397
REMARK  165  A    between atoms: _396  and  _399
REMARK  166  A    between atoms: _399  and  _400
REMARK  167  A    between atoms: _405  and  _407
REMARK  168  A    between atoms: _407  and  _408
REMARK  169  A    between atoms: _407  and  _410
REMARK  170  A    between atoms: _410  and  _411
REMARK  171  A    between atoms: _411  and  _412
REMARK  172  A    between atoms: _412  and  _413
REMARK  173  A    between atoms: _413  and  _414
REMARK  174  A    between atoms: _418  and  _420
REMARK  175  A    between atoms: _420  and  _421
REMARK  176  A    between atoms: _420  and  _423
REMARK  177  A    between atoms: _426  and  _428
REMARK  178  A    between atoms: _428  and  _429
REMARK  179  A    between atoms: _428  and  _431
REMARK  180  A    between atoms: _431  and  _432
REMARK  181  A    between atoms: _435  and  _437
REMARK  182  A    between atoms: _437  and  _438
REMARK  183  A    between atoms: _441  and  _443
REMARK  184  A    between atoms: _443  and  _444
REMARK  185  A    between atoms: _443  and  _446
REMARK  186  A    between atoms: _446  and  _447
REMARK  187  A    between atoms: _452  and  _454
REMARK  188  A    between atoms: _454  and  _455
REMARK  189  A    between atoms: _454  and  _457
REMARK  190  A    between atoms: _457  and  _458
REMARK  191  A    between atoms: _463  and  _465
REMARK  192  A    between atoms: _465  and  _466
REMARK  193  A    between atoms: _465  and  _468
REMARK  194  A    between atoms: _468  and  _469
REMARK  195  A    between atoms: _469  and  _470
REMARK  196  A    between atoms: _473  and  _475
REMARK  197  A    between atoms: _475  and  _476
REMARK  198  A    between atoms: _475  and  _478
REMARK  199  A    between atoms: _481  and  _483
REMARK  200  A    between atoms: _483  and  _484
REMARK  201  A    between atoms: _483  and  _486
REMARK  202  A    between atoms: _486  and  _487
REMARK  203  A    between atoms: _490  and  _492
REMARK  204  A    between atoms: _492  and  _493
REMARK  205  A    between atoms: _492  and  _495
REMARK  206  A    between atoms: _495  and  _496
REMARK  207  A    between atoms: _496  and  _497
REMARK  208  A    between atoms: _497  and  _498
REMARK  209  A    between atoms: _507  and  _509
REMARK  210  A    between atoms: _509  and  _510
REMARK  211  A    between atoms: _509  and  _512
REMARK  212  A    between atoms: _512  and  _513
REMARK                            x       y       z     vdW  Elec       q    Type
REMARK                         _______ _______ _______ _____ _____    ______ ____
ROOT
ATOM      1  O   HOH     1      34.608  -1.932  34.376  0.00  0.00    +0.000 OA
ENDROOT
TORSDOF 0
REMARK  Name = ../refined-set-2016/3fuc/3fuc_pocket.pdb
REMARK  212 active torsions:
REMARK  status: ('A' for Active; 'I' for Inactive)
REMARK    1  A    between atoms: _1  and  _3
REMARK    2  A    between atoms: _3  and  _4
REMARK    3  A    between atoms: _3  and  _6
REMARK    4  A    between atoms: _6  and  _7
REMARK    5  A    between atoms: _10  and  _12
REMARK    6  A    between atoms: _12  and  _13
REMARK    7  A    between atoms: _12  and  _15
REMARK    8  A    between atoms: _17  and  _19
REMARK    9  A    between atoms: _19  and  _20
REMARK   10  A    between atoms: _22  and  _24
REMARK   11  A    between atoms: _24  and  _25
REMARK   12  A    between atoms: _24  and  _27
REMARK   13  A    between atoms: _27  and  _28
REMARK   14  A    between atoms: _30  and  _32
REMARK   15  A    between atoms: _32  and  _33
REMARK   16  A    between atoms: _35  and  _37
REMARK   17  A    between atoms: _37  and  _38
REMARK   18  A    between atoms: _37  and  _40
REMARK   19  A    between atoms: _40  and  _41
REMARK   20  A    between atoms: _44  and  _46
REMARK   21  A    between atoms: _46  and  _47
REMARK   22  A    between atoms: _49  and  _51
REMARK   23  A    between atoms: _51  and  _52
REMARK   24  A    between atoms: _54  and  _56
REMARK   25  A    between atoms: _56  and  _57
REMARK   26  A    between atoms: _56  and  _59
REMARK   27  A    between atoms: _59  and  _60
REMARK   28  A    between atoms: _60  and  _61
REMARK   29  A    between atoms: _61  and  _62
REMARK   30  A    between atoms: _71  and  _73
REMARK   31  A    between atoms: _73  and  _74
REMARK   32  A    between atoms: _73  and  _76
REMARK   33  A    between atoms: _76  and  _77
REMARK   34  A    between atoms: _83  and  _85
REMARK   35  A    between atoms: _85  and  _86
REMARK   36  A    between atoms: _85  and  _88
REMARK   37  A    between atoms: _88  and  _89
REMARK   38  A    between atoms: _94  and  _96
REMARK   39  A    between atoms: _96  and  _97
REMARK   40  A    between atoms: _96  and  _99
REMARK   41  A    between atoms: _99  and  _100
REMARK   42  A    between atoms: _100  and  _101
REMARK   43  A    between atoms: _103  and  _105
REMARK   44  A    between atoms: _105  and  _106
REMARK   45  A    between atoms: _105  and  _108
REMARK   46  A    between atoms: _108  and  _109
REMARK   47  A    between atoms: _114  and  _115
REMARK   48  A    between atoms: _117  and  _119
REMARK   49  A    between atoms: _119  and  _120
REMARK   50  A    between atoms: _119  and  _122
REMARK   51  A    between atoms: _122  and  _123
REMARK   52  A    between atoms: _123  and  _124
REMARK   53  A    between atoms: _127  and  _129
REMARK   54  A    between atoms: _129  and  _130
REMARK   55  A    between atoms: _129  and  _132
REMARK   56  A    between atoms: _132  and  _133
REMARK   57  A    between atoms: _136  and  _138
REMARK   58  A    between atoms: _138  and  _139
REMARK   59  A    between atoms: _138  and  _141
REMARK   60  A    between atoms: _141  and  _142
REMARK   61  A    between atoms: _147  and  _149
REMARK   62  A    between atoms: _149  and  _150
REMARK   63  A    between atoms: _153  and  _155
REMARK   64  A    between atoms: _155  and  _156
REMARK   65  A    between atoms: _159  and  _161
REMARK   66  A    between atoms: _161  and  _162
REMARK   67  A    between atoms: _164  and  _166
REMARK   68  A    between atoms: _166  and  _167
REMARK   69  A    between atoms: _169  and  _171
REMARK   70  A    between atoms: _171  and  _172
REMARK   71  A    between atoms: _171  and  _174
REMARK   72  A    between atoms: _174  and  _175
REMARK   73  A    between atoms: _178  and  _180
REMARK   74  A    between atoms: _180  and  _181
REMARK   75  A    between atoms: _180  and  _183
REMARK   76  A    between atoms: _183  and  _184
REMARK   77  A    between atoms: _189  and  _190
REMARK   78  A    between atoms: _192  and  _194
REMARK   79  A    between atoms: _194  and  _195
REMARK   80  A    between atoms: _194  and  _197
REMARK   81  A    between atoms: _200  and  _202
REMARK   82  A    between atoms: _202  and  _203
REMARK   83  A    between atoms: _202  and  _205
REMARK   84  A    between atoms: _205  and  _206
REMARK   85  A    between atoms: _206  and  _207
REMARK   86  A    between atoms: _209  and  _211
REMARK   87  A    between atoms: _211  and  _212
REMARK   88  A    between atoms: _211  and  _214
REMARK   89  A    between atoms: _214  and  _215
REMARK   90  A    between atoms: _218  and  _220
REMARK   91  A    between atoms: _220  and  _221
REMARK   92  A    between atoms: _223  and  _225
REMARK   93  A    between atoms: _225  and  _226
REMARK   94  A    between atoms: _229  and  _230
REMARK   95  A    between atoms: _235  and  _237
REMARK   96  A    between atoms: _237  and  _238
REMARK   97  A    between atoms: _237  and  _240
REMARK   98  A    between atoms: _240  and  _241
REMARK   99  A    between atoms: _246  and  _248
REMARK  100  A    between atoms: _248  and  _249
REMARK  101  A    between atoms: _248  and  _251
REMARK  102  A    between atoms: _251  and  _252
REMARK  103  A    between atoms: _258  and  _260
REMARK  104  A    between atoms: _260  and  _261
REMARK  105  A    between atoms: _260  and  _263
REMARK  106  A    between atoms: _263  and  _264
REMARK  107  A    between atoms: _264  and  _265
REMARK  108  A    between atoms: _268  and  _270
REMARK  109  A    between atoms: _270  and  _271
REMARK  110  A    between atoms: _270  and  _273
REMARK  111  A    between atoms: _275  and  _277
REMARK  112  A    between atoms: _277  and  _278
REMARK  113  A    between atoms: _277  and  _280
REMARK  114  A    between atoms: _280  and  _281
REMARK  115  A    between atoms: _284  and  _286
REMARK  116  A    between atoms: _286  and  _287
REMARK  117  A    between atoms: _290  and  _292
REMARK  118  A    between atoms: _292  and  _293
REMARK  119  A    between atoms: _292  and  _295
REMARK  120  A    between atoms: _298  and  _300
REMARK  121  A    between atoms: _300  and  _301
REMARK  122  A    between atoms: _303  and  _305
REMARK  123  A    between atoms: _305  and  _306
REMARK  124  A    between atoms: _305  and  _308
REMARK  125  A    between atoms: _308  and  _309
REMARK  126  A    between atoms: _309  and  _310
REMARK  127  A    between atoms: _312  and  _314
REMARK  128  A    between atoms: _314  and  _315
REMARK  129  A    between atoms: _314  and  _317
REMARK  130  A    between atoms: _317  and  _318
REMARK  131  A    between atoms: _320  and  _322
REMARK  132  A    between atoms: _322  and  _323
REMARK  133  A    between atoms: _322  and  _325
REMARK  134  A    between atoms: _325  and  _326
REMARK  135  A    between atoms: _329  and  _331
REMARK  136  A    between atoms: _331  and  _332
REMARK  137  A    between atoms: _331  and  _334
REMARK  138  A    between atoms: _337  and  _339
REMARK  139  A    between atoms: _339  and  _340
REMARK  140  A    between atoms: _339  and  _342
REMARK  141  A    between atoms: _342  and  _343
REMARK  142  A    between atoms: _343  and  _344
REMARK  143  A    between atoms: _347  and  _349
REMARK  144  A    between atoms: _349  and  _350
REMARK  145  A    between atoms: _349  and  _352
REMARK  146  A    between atoms: _352  and  _353
REMARK  147  A    between atoms: _359  and  _361
REMARK  148  A    between atoms: _361  and  _362
REMARK  149  A    between atoms: _361  and  _364
REMARK  150  A    between atoms: _364  and  _365
REMARK  151  A    between atoms: _367  and  _369
REMARK  152  A    between atoms: _369  and  _370
REMARK  153  A    between atoms: _369  and  _372
REMARK  154  A    between atoms: _372  and  _373
REMARK  155  A    between atoms: _376  and  _378
REMARK  156  A    between atoms: _378  and  _379
REMARK  157  A    between atoms: _378  and  _381
REMARK  158  A    between atoms: _381  and  _382
REMARK  159  A    between atoms: _385  and  _387
REMARK  160  A    between atoms: _387  and  _388
REMARK  161  A    between atoms: _387  and  _390
REMARK  162  A    between atoms: _390  and  _391
REMARK  163  A    between atoms: _394  and  _396
REMARK  164  A    between atoms: _396  and  _397
REMARK  165  A    between atoms: _396  and  _399
REMARK  166  A    between atoms: _399  and  _400
REMARK  167  A    between atoms: _405  and  _407
REMARK  168  A    between atoms: _407  and  _408
REMARK  169  A    between atoms: _407  and  _410
REMARK  170  A    between atoms: _410  and  _411
REMARK  171  A    between atoms: _411  and  _412
REMARK  172  A    between atoms: _412  and  _413
REMARK  173  A    between atoms: _413  and  _414
REMARK  174  A    between atoms: _418  and  _420
REMARK  175  A    between atoms: _420  and  _421
REMARK  176  A    between atoms: _420  and  _423
REMARK  177  A    between atoms: _426  and  _428
REMARK  178  A    between atoms: _428  and  _429
REMARK  179  A    between atoms: _428  and  _431
REMARK  180  A    between atoms: _431  and  _432
REMARK  181  A    between atoms: _435  and  _437
REMARK  182  A    between atoms: _437  and  _438
REMARK  183  A    between atoms: _441  and  _443
REMARK  184  A    between atoms: _443  and  _444
REMARK  185  A    between atoms: _443  and  _446
REMARK  186  A    between atoms: _446  and  _447
REMARK  187  A    between atoms: _452  and  _454
REMARK  188  A    between atoms: _454  and  _455
REMARK  189  A    between atoms: _454  and  _457
REMARK  190  A    between atoms: _457  and  _458
REMARK  191  A    between atoms: _463  and  _465
REMARK  192  A    between atoms: _465  and  _466
REMARK  193  A    between atoms: _465  and  _468
REMARK  194  A    between atoms: _468  and  _469
REMARK  195  A    between atoms: _469  and  _470
REMARK  196  A    between atoms: _473  and  _475
REMARK  197  A    between atoms: _475  and  _476
REMARK  198  A    between atoms: _475  and  _478
REMARK  199  A    between atoms: _481  and  _483
REMARK  200  A    between atoms: _483  and  _484
REMARK  201  A    between atoms: _483  and  _486
REMARK  202  A    between atoms: _486  and  _487
REMARK  203  A    between atoms: _490  and  _492
REMARK  204  A    between atoms: _492  and  _493
REMARK  205  A    between atoms: _492  and  _495
REMARK  206  A    between atoms: _495  and  _496
REMARK  207  A    between atoms: _496  and  _497
REMARK  208  A    between atoms: _497  and  _498
REMARK  209  A    between atoms: _507  and  _509
REMARK  210  A    between atoms: _509  and  _510
REMARK  211  A    between atoms: _509  and  _512
REMARK  212  A    between atoms: _512  and  _513
REMARK                            x       y       z     vdW  Elec       q    Type
REMARK                         _______ _______ _______ _____ _____    ______ ____
ROOT
ATOM      1  O   HOH     1      34.898   0.535  31.253  0.00  0.00    +0.000 OA
ENDROOT
TORSDOF 0
REMARK  Name = ../refined-set-2016/3fuc/3fuc_pocket.pdb
REMARK  212 active torsions:
REMARK  status: ('A' for Active; 'I' for Inactive)
REMARK    1  A    between atoms: _1  and  _3
REMARK    2  A    between atoms: _3  and  _4
REMARK    3  A    between atoms: _3  and  _6
REMARK    4  A    between atoms: _6  and  _7
REMARK    5  A    between atoms: _10  and  _12
REMARK    6  A    between atoms: _12  and  _13
REMARK    7  A    between atoms: _12  and  _15
REMARK    8  A    between atoms: _17  and  _19
REMARK    9  A    between atoms: _19  and  _20
REMARK   10  A    between atoms: _22  and  _24
REMARK   11  A    between atoms: _24  and  _25
REMARK   12  A    between atoms: _24  and  _27
REMARK   13  A    between atoms: _27  and  _28
REMARK   14  A    between atoms: _30  and  _32
REMARK   15  A    between atoms: _32  and  _33
REMARK   16  A    between atoms: _35  and  _37
REMARK   17  A    between atoms: _37  and  _38
REMARK   18  A    between atoms: _37  and  _40
REMARK   19  A    between atoms: _40  and  _41
REMARK   20  A    between atoms: _44  and  _46
REMARK   21  A    between atoms: _46  and  _47
REMARK   22  A    between atoms: _49  and  _51
REMARK   23  A    between atoms: _51  and  _52
REMARK   24  A    between atoms: _54  and  _56
REMARK   25  A    between atoms: _56  and  _57
REMARK   26  A    between atoms: _56  and  _59
REMARK   27  A    between atoms: _59  and  _60
REMARK   28  A    between atoms: _60  and  _61
REMARK   29  A    between atoms: _61  and  _62
REMARK   30  A    between atoms: _71  and  _73
REMARK   31  A    between atoms: _73  and  _74
REMARK   32  A    between atoms: _73  and  _76
REMARK   33  A    between atoms: _76  and  _77
REMARK   34  A    between atoms: _83  and  _85
REMARK   35  A    between atoms: _85  and  _86
REMARK   36  A    between atoms: _85  and  _88
REMARK   37  A    between atoms: _88  and  _89
REMARK   38  A    between atoms: _94  and  _96
REMARK   39  A    between atoms: _96  and  _97
REMARK   40  A    between atoms: _96  and  _99
REMARK   41  A    between atoms: _99  and  _100
REMARK   42  A    between atoms: _100  and  _101
REMARK   43  A    between atoms: _103  and  _105
REMARK   44  A    between atoms: _105  and  _106
REMARK   45  A    between atoms: _105  and  _108
REMARK   46  A    between atoms: _108  and  _109
REMARK   47  A    between atoms: _114  and  _115
REMARK   48  A    between atoms: _117  and  _119
REMARK   49  A    between atoms: _119  and  _120
REMARK   50  A    between atoms: _119  and  _122
REMARK   51  A    between atoms: _122  and  _123
REMARK   52  A    between atoms: _123  and  _124
REMARK   53  A    between atoms: _127  and  _129
REMARK   54  A    between atoms: _129  and  _130
REMARK   55  A    between atoms: _129  and  _132
REMARK   56  A    between atoms: _132  and  _133
REMARK   57  A    between atoms: _136  and  _138
REMARK   58  A    between atoms: _138  and  _139
REMARK   59  A    between atoms: _138  and  _141
REMARK   60  A    between atoms: _141  and  _142
REMARK   61  A    between atoms: _147  and  _149
REMARK   62  A    between atoms: _149  and  _150
REMARK   63  A    between atoms: _153  and  _155
REMARK   64  A    between atoms: _155  and  _156
REMARK   65  A    between atoms: _159  and  _161
REMARK   66  A    between atoms: _161  and  _162
REMARK   67  A    between atoms: _164  and  _166
REMARK   68  A    between atoms: _166  and  _167
REMARK   69  A    between atoms: _169  and  _171
REMARK   70  A    between atoms: _171  and  _172
REMARK   71  A    between atoms: _171  and  _174
REMARK   72  A    between atoms: _174  and  _175
REMARK   73  A    between atoms: _178  and  _180
REMARK   74  A    between atoms: _180  and  _181
REMARK   75  A    between atoms: _180  and  _183
REMARK   76  A    between atoms: _183  and  _184
REMARK   77  A    between atoms: _189  and  _190
REMARK   78  A    between atoms: _192  and  _194
REMARK   79  A    between atoms: _194  and  _195
REMARK   80  A    between atoms: _194  and  _197
REMARK   81  A    between atoms: _200  and  _202
REMARK   82  A    between atoms: _202  and  _203
REMARK   83  A    between atoms: _202  and  _205
REMARK   84  A    between atoms: _205  and  _206
REMARK   85  A    between atoms: _206  and  _207
REMARK   86  A    between atoms: _209  and  _211
REMARK   87  A    between atoms: _211  and  _212
REMARK   88  A    between atoms: _211  and  _214
REMARK   89  A    between atoms: _214  and  _215
REMARK   90  A    between atoms: _218  and  _220
REMARK   91  A    between atoms: _220  and  _221
REMARK   92  A    between atoms: _223  and  _225
REMARK   93  A    between atoms: _225  and  _226
REMARK   94  A    between atoms: _229  and  _230
REMARK   95  A    between atoms: _235  and  _237
REMARK   96  A    between atoms: _237  and  _238
REMARK   97  A    between atoms: _237  and  _240
REMARK   98  A    between atoms: _240  and  _241
REMARK   99  A    between atoms: _246  and  _248
REMARK  100  A    between atoms: _248  and  _249
REMARK  101  A    between atoms: _248  and  _251
REMARK  102  A    between atoms: _251  and  _252
REMARK  103  A    between atoms: _258  and  _260
REMARK  104  A    between atoms: _260  and  _261
REMARK  105  A    between atoms: _260  and  _263
REMARK  106  A    between atoms: _263  and  _264
REMARK  107  A    between atoms: _264  and  _265
REMARK  108  A    between atoms: _268  and  _270
REMARK  109  A    between atoms: _270  and  _271
REMARK  110  A    between atoms: _270  and  _273
REMARK  111  A    between atoms: _275  and  _277
REMARK  112  A    between atoms: _277  and  _278
REMARK  113  A    between atoms: _277  and  _280
REMARK  114  A    between atoms: _280  and  _281
REMARK  115  A    between atoms: _284  and  _286
REMARK  116  A    between atoms: _286  and  _287
REMARK  117  A    between atoms: _290  and  _292
REMARK  118  A    between atoms: _292  and  _293
REMARK  119  A    between atoms: _292  and  _295
REMARK  120  A    between atoms: _298  and  _300
REMARK  121  A    between atoms: _300  and  _301
REMARK  122  A    between atoms: _303  and  _305
REMARK  123  A    between atoms: _305  and  _306
REMARK  124  A    between atoms: _305  and  _308
REMARK  125  A    between atoms: _308  and  _309
REMARK  126  A    between atoms: _309  and  _310
REMARK  127  A    between atoms: _312  and  _314
REMARK  128  A    between atoms: _314  and  _315
REMARK  129  A    between atoms: _314  and  _317
REMARK  130  A    between atoms: _317  and  _318
REMARK  131  A    between atoms: _320  and  _322
REMARK  132  A    between atoms: _322  and  _323
REMARK  133  A    between atoms: _322  and  _325
REMARK  134  A    between atoms: _325  and  _326
REMARK  135  A    between atoms: _329  and  _331
REMARK  136  A    between atoms: _331  and  _332
REMARK  137  A    between atoms: _331  and  _334
REMARK  138  A    between atoms: _337  and  _339
REMARK  139  A    between atoms: _339  and  _340
REMARK  140  A    between atoms: _339  and  _342
REMARK  141  A    between atoms: _342  and  _343
REMARK  142  A    between atoms: _343  and  _344
REMARK  143  A    between atoms: _347  and  _349
REMARK  144  A    between atoms: _349  and  _350
REMARK  145  A    between atoms: _349  and  _352
REMARK  146  A    between atoms: _352  and  _353
REMARK  147  A    between atoms: _359  and  _361
REMARK  148  A    between atoms: _361  and  _362
REMARK  149  A    between atoms: _361  and  _364
REMARK  150  A    between atoms: _364  and  _365
REMARK  151  A    between atoms: _367  and  _369
REMARK  152  A    between atoms: _369  and  _370
REMARK  153  A    between atoms: _369  and  _372
REMARK  154  A    between atoms: _372  and  _373
REMARK  155  A    between atoms: _376  and  _378
REMARK  156  A    between atoms: _378  and  _379
REMARK  157  A    between atoms: _378  and  _381
REMARK  158  A    between atoms: _381  and  _382
REMARK  159  A    between atoms: _385  and  _387
REMARK  160  A    between atoms: _387  and  _388
REMARK  161  A    between atoms: _387  and  _390
REMARK  162  A    between atoms: _390  and  _391
REMARK  163  A    between atoms: _394  and  _396
REMARK  164  A    between atoms: _396  and  _397
REMARK  165  A    between atoms: _396  and  _399
REMARK  166  A    between atoms: _399  and  _400
REMARK  167  A    between atoms: _405  and  _407
REMARK  168  A    between atoms: _407  and  _408
REMARK  169  A    between atoms: _407  and  _410
REMARK  170  A    between atoms: _410  and  _411
REMARK  171  A    between atoms: _411  and  _412
REMARK  172  A    between atoms: _412  and  _413
REMARK  173  A    between atoms: _413  and  _414
REMARK  174  A    between atoms: _418  and  _420
REMARK  175  A    between atoms: _420  and  _421
REMARK  176  A    between atoms: _420  and  _423
REMARK  177  A    between atoms: _426  and  _428
REMARK  178  A    between atoms: _428  and  _429
REMARK  179  A    between atoms: _428  and  _431
REMARK  180  A    between atoms: _431  and  _432
REMARK  181  A    between atoms: _435  and  _437
REMARK  182  A    between atoms: _437  and  _438
REMARK  183  A    between atoms: _441  and  _443
REMARK  184  A    between atoms: _443  and  _444
REMARK  185  A    between atoms: _443  and  _446
REMARK  186  A    between atoms: _446  and  _447
REMARK  187  A    between atoms: _452  and  _454
REMARK  188  A    between atoms: _454  and  _455
REMARK  189  A    between atoms: _454  and  _457
REMARK  190  A    between atoms: _457  and  _458
REMARK  191  A    between atoms: _463  and  _465
REMARK  192  A    between atoms: _465  and  _466
REMARK  193  A    between atoms: _465  and  _468
REMARK  194  A    between atoms: _468  and  _469
REMARK  195  A    between atoms: _469  and  _470
REMARK  196  A    between atoms: _473  and  _475
REMARK  197  A    between atoms: _475  and  _476
REMARK  198  A    between atoms: _475  and  _478
REMARK  199  A    between atoms: _481  and  _483
REMARK  200  A    between atoms: _483  and  _484
REMARK  201  A    between atoms: _483  and  _486
REMARK  202  A    between atoms: _486  and  _487
REMARK  203  A    between atoms: _490  and  _492
REMARK  204  A    between atoms: _492  and  _493
REMARK  205  A    between atoms: _492  and  _495
REMARK  206  A    between atoms: _495  and  _496
REMARK  207  A    between atoms: _496  and  _497
REMARK  208  A    between atoms: _497  and  _498
REMARK  209  A    between atoms: _507  and  _509
REMARK  210  A    between atoms: _509  and  _510
REMARK  211  A    between atoms: _509  and  _512
REMARK  212  A    between atoms: _512  and  _513
REMARK                            x       y       z     vdW  Elec       q    Type
REMARK                         _______ _______ _______ _____ _____    ______ ____
ROOT
ATOM      1  O   HOH     1      28.669  -1.806  27.823  0.00  0.00    +0.000 OA
ENDROOT
TORSDOF 0
REMARK  Name = ../refined-set-2016/3fuc/3fuc_pocket.pdb
REMARK  212 active torsions:
REMARK  status: ('A' for Active; 'I' for Inactive)
REMARK    1  A    between atoms: _1  and  _3
REMARK    2  A    between atoms: _3  and  _4
REMARK    3  A    between atoms: _3  and  _6
REMARK    4  A    between atoms: _6  and  _7
REMARK    5  A    between atoms: _10  and  _12
REMARK    6  A    between atoms: _12  and  _13
REMARK    7  A    between atoms: _12  and  _15
REMARK    8  A    between atoms: _17  and  _19
REMARK    9  A    between atoms: _19  and  _20
REMARK   10  A    between atoms: _22  and  _24
REMARK   11  A    between atoms: _24  and  _25
REMARK   12  A    between atoms: _24  and  _27
REMARK   13  A    between atoms: _27  and  _28
REMARK   14  A    between atoms: _30  and  _32
REMARK   15  A    between atoms: _32  and  _33
REMARK   16  A    between atoms: _35  and  _37
REMARK   17  A    between atoms: _37  and  _38
REMARK   18  A    between atoms: _37  and  _40
REMARK   19  A    between atoms: _40  and  _41
REMARK   20  A    between atoms: _44  and  _46
REMARK   21  A    between atoms: _46  and  _47
REMARK   22  A    between atoms: _49  and  _51
REMARK   23  A    between atoms: _51  and  _52
REMARK   24  A    between atoms: _54  and  _56
REMARK   25  A    between atoms: _56  and  _57
REMARK   26  A    between atoms: _56  and  _59
REMARK   27  A    between atoms: _59  and  _60
REMARK   28  A    between atoms: _60  and  _61
REMARK   29  A    between atoms: _61  and  _62
REMARK   30  A    between atoms: _71  and  _73
REMARK   31  A    between atoms: _73  and  _74
REMARK   32  A    between atoms: _73  and  _76
REMARK   33  A    between atoms: _76  and  _77
REMARK   34  A    between atoms: _83  and  _85
REMARK   35  A    between atoms: _85  and  _86
REMARK   36  A    between atoms: _85  and  _88
REMARK   37  A    between atoms: _88  and  _89
REMARK   38  A    between atoms: _94  and  _96
REMARK   39  A    between atoms: _96  and  _97
REMARK   40  A    between atoms: _96  and  _99
REMARK   41  A    between atoms: _99  and  _100
REMARK   42  A    between atoms: _100  and  _101
REMARK   43  A    between atoms: _103  and  _105
REMARK   44  A    between atoms: _105  and  _106
REMARK   45  A    between atoms: _105  and  _108
REMARK   46  A    between atoms: _108  and  _109
REMARK   47  A    between atoms: _114  and  _115
REMARK   48  A    between atoms: _117  and  _119
REMARK   49  A    between atoms: _119  and  _120
REMARK   50  A    between atoms: _119  and  _122
REMARK   51  A    between atoms: _122  and  _123
REMARK   52  A    between atoms: _123  and  _124
REMARK   53  A    between atoms: _127  and  _129
REMARK   54  A    between atoms: _129  and  _130
REMARK   55  A    between atoms: _129  and  _132
REMARK   56  A    between atoms: _132  and  _133
REMARK   57  A    between atoms: _136  and  _138
REMARK   58  A    between atoms: _138  and  _139
REMARK   59  A    between atoms: _138  and  _141
REMARK   60  A    between atoms: _141  and  _142
REMARK   61  A    between atoms: _147  and  _149
REMARK   62  A    between atoms: _149  and  _150
REMARK   63  A    between atoms: _153  and  _155
REMARK   64  A    between atoms: _155  and  _156
REMARK   65  A    between atoms: _159  and  _161
REMARK   66  A    between atoms: _161  and  _162
REMARK   67  A    between atoms: _164  and  _166
REMARK   68  A    between atoms: _166  and  _167
REMARK   69  A    between atoms: _169  and  _171
REMARK   70  A    between atoms: _171  and  _172
REMARK   71  A    between atoms: _171  and  _174
REMARK   72  A    between atoms: _174  and  _175
REMARK   73  A    between atoms: _178  and  _180
REMARK   74  A    between atoms: _180  and  _181
REMARK   75  A    between atoms: _180  and  _183
REMARK   76  A    between atoms: _183  and  _184
REMARK   77  A    between atoms: _189  and  _190
REMARK   78  A    between atoms: _192  and  _194
REMARK   79  A    between atoms: _194  and  _195
REMARK   80  A    between atoms: _194  and  _197
REMARK   81  A    between atoms: _200  and  _202
REMARK   82  A    between atoms: _202  and  _203
REMARK   83  A    between atoms: _202  and  _205
REMARK   84  A    between atoms: _205  and  _206
REMARK   85  A    between atoms: _206  and  _207
REMARK   86  A    between atoms: _209  and  _211
REMARK   87  A    between atoms: _211  and  _212
REMARK   88  A    between atoms: _211  and  _214
REMARK   89  A    between atoms: _214  and  _215
REMARK   90  A    between atoms: _218  and  _220
REMARK   91  A    between atoms: _220  and  _221
REMARK   92  A    between atoms: _223  and  _225
REMARK   93  A    between atoms: _225  and  _226
REMARK   94  A    between atoms: _229  and  _230
REMARK   95  A    between atoms: _235  and  _237
REMARK   96  A    between atoms: _237  and  _238
REMARK   97  A    between atoms: _237  and  _240
REMARK   98  A    between atoms: _240  and  _241
REMARK   99  A    between atoms: _246  and  _248
REMARK  100  A    between atoms: _248  and  _249
REMARK  101  A    between atoms: _248  and  _251
REMARK  102  A    between atoms: _251  and  _252
REMARK  103  A    between atoms: _258  and  _260
REMARK  104  A    between atoms: _260  and  _261
REMARK  105  A    between atoms: _260  and  _263
REMARK  106  A    between atoms: _263  and  _264
REMARK  107  A    between atoms: _264  and  _265
REMARK  108  A    between atoms: _268  and  _270
REMARK  109  A    between atoms: _270  and  _271
REMARK  110  A    between atoms: _270  and  _273
REMARK  111  A    between atoms: _275  and  _277
REMARK  112  A    between atoms: _277  and  _278
REMARK  113  A    between atoms: _277  and  _280
REMARK  114  A    between atoms: _280  and  _281
REMARK  115  A    between atoms: _284  and  _286
REMARK  116  A    between atoms: _286  and  _287
REMARK  117  A    between atoms: _290  and  _292
REMARK  118  A    between atoms: _292  and  _293
REMARK  119  A    between atoms: _292  and  _295
REMARK  120  A    between atoms: _298  and  _300
REMARK  121  A    between atoms: _300  and  _301
REMARK  122  A    between atoms: _303  and  _305
REMARK  123  A    between atoms: _305  and  _306
REMARK  124  A    between atoms: _305  and  _308
REMARK  125  A    between atoms: _308  and  _309
REMARK  126  A    between atoms: _309  and  _310
REMARK  127  A    between atoms: _312  and  _314
REMARK  128  A    between atoms: _314  and  _315
REMARK  129  A    between atoms: _314  and  _317
REMARK  130  A    between atoms: _317  and  _318
REMARK  131  A    between atoms: _320  and  _322
REMARK  132  A    between atoms: _322  and  _323
REMARK  133  A    between atoms: _322  and  _325
REMARK  134  A    between atoms: _325  and  _326
REMARK  135  A    between atoms: _329  and  _331
REMARK  136  A    between atoms: _331  and  _332
REMARK  137  A    between atoms: _331  and  _334
REMARK  138  A    between atoms: _337  and  _339
REMARK  139  A    between atoms: _339  and  _340
REMARK  140  A    between atoms: _339  and  _342
REMARK  141  A    between atoms: _342  and  _343
REMARK  142  A    between atoms: _343  and  _344
REMARK  143  A    between atoms: _347  and  _349
REMARK  144  A    between atoms: _349  and  _350
REMARK  145  A    between atoms: _349  and  _352
REMARK  146  A    between atoms: _352  and  _353
REMARK  147  A    between atoms: _359  and  _361
REMARK  148  A    between atoms: _361  and  _362
REMARK  149  A    between atoms: _361  and  _364
REMARK  150  A    between atoms: _364  and  _365
REMARK  151  A    between atoms: _367  and  _369
REMARK  152  A    between atoms: _369  and  _370
REMARK  153  A    between atoms: _369  and  _372
REMARK  154  A    between atoms: _372  and  _373
REMARK  155  A    between atoms: _376  and  _378
REMARK  156  A    between atoms: _378  and  _379
REMARK  157  A    between atoms: _378  and  _381
REMARK  158  A    between atoms: _381  and  _382
REMARK  159  A    between atoms: _385  and  _387
REMARK  160  A    between atoms: _387  and  _388
REMARK  161  A    between atoms: _387  and  _390
REMARK  162  A    between atoms: _390  and  _391
REMARK  163  A    between atoms: _394  and  _396
REMARK  164  A    between atoms: _396  and  _397
REMARK  165  A    between atoms: _396  and  _399
REMARK  166  A    between atoms: _399  and  _400
REMARK  167  A    between atoms: _405  and  _407
REMARK  168  A    between atoms: _407  and  _408
REMARK  169  A    between atoms: _407  and  _410
REMARK  170  A    between atoms: _410  and  _411
REMARK  171  A    between atoms: _411  and  _412
REMARK  172  A    between atoms: _412  and  _413
REMARK  173  A    between atoms: _413  and  _414
REMARK  174  A    between atoms: _418  and  _420
REMARK  175  A    between atoms: _420  and  _421
REMARK  176  A    between atoms: _420  and  _423
REMARK  177  A    between atoms: _426  and  _428
REMARK  178  A    between atoms: _428  and  _429
REMARK  179  A    between atoms: _428  and  _431
REMARK  180  A    between atoms: _431  and  _432
REMARK  181  A    between atoms: _435  and  _437
REMARK  182  A    between atoms: _437  and  _438
REMARK  183  A    between atoms: _441  and  _443
REMARK  184  A    between atoms: _443  and  _444
REMARK  185  A    between atoms: _443  and  _446
REMARK  186  A    between atoms: _446  and  _447
REMARK  187  A    between atoms: _452  and  _454
REMARK  188  A    between atoms: _454  and  _455
REMARK  189  A    between atoms: _454  and  _457
REMARK  190  A    between atoms: _457  and  _458
REMARK  191  A    between atoms: _463  and  _465
REMARK  192  A    between atoms: _465  and  _466
REMARK  193  A    between atoms: _465  and  _468
REMARK  194  A    between atoms: _468  and  _469
REMARK  195  A    between atoms: _469  and  _470
REMARK  196  A    between atoms: _473  and  _475
REMARK  197  A    between atoms: _475  and  _476
REMARK  198  A    between atoms: _475  and  _478
REMARK  199  A    between atoms: _481  and  _483
REMARK  200  A    between atoms: _483  and  _484
REMARK  201  A    between atoms: _483  and  _486
REMARK  202  A    between atoms: _486  and  _487
REMARK  203  A    between atoms: _490  and  _492
REMARK  204  A    between atoms: _492  and  _493
REMARK  205  A    between atoms: _492  and  _495
REMARK  206  A    between atoms: _495  and  _496
REMARK  207  A    between atoms: _496  and  _497
REMARK  208  A    between atoms: _497  and  _498
REMARK  209  A    between atoms: _507  and  _509
REMARK  210  A    between atoms: _509  and  _510
REMARK  211  A    between atoms: _509  and  _512
REMARK  212  A    between atoms: _512  and  _513
REMARK                            x       y       z     vdW  Elec       q    Type
REMARK                         _______ _______ _______ _____ _____    ______ ____
ROOT
ATOM      1  O   HOH     1      25.029 -10.720  20.793  0.00  0.00    +0.000 OA
ENDROOT
TORSDOF 0
REMARK  Name = ../refined-set-2016/3fuc/3fuc_pocket.pdb
REMARK  212 active torsions:
REMARK  status: ('A' for Active; 'I' for Inactive)
REMARK    1  A    between atoms: _1  and  _3
REMARK    2  A    between atoms: _3  and  _4
REMARK    3  A    between atoms: _3  and  _6
REMARK    4  A    between atoms: _6  and  _7
REMARK    5  A    between atoms: _10  and  _12
REMARK    6  A    between atoms: _12  and  _13
REMARK    7  A    between atoms: _12  and  _15
REMARK    8  A    between atoms: _17  and  _19
REMARK    9  A    between atoms: _19  and  _20
REMARK   10  A    between atoms: _22  and  _24
REMARK   11  A    between atoms: _24  and  _25
REMARK   12  A    between atoms: _24  and  _27
REMARK   13  A    between atoms: _27  and  _28
REMARK   14  A    between atoms: _30  and  _32
REMARK   15  A    between atoms: _32  and  _33
REMARK   16  A    between atoms: _35  and  _37
REMARK   17  A    between atoms: _37  and  _38
REMARK   18  A    between atoms: _37  and  _40
REMARK   19  A    between atoms: _40  and  _41
REMARK   20  A    between atoms: _44  and  _46
REMARK   21  A    between atoms: _46  and  _47
REMARK   22  A    between atoms: _49  and  _51
REMARK   23  A    between atoms: _51  and  _52
REMARK   24  A    between atoms: _54  and  _56
REMARK   25  A    between atoms: _56  and  _57
REMARK   26  A    between atoms: _56  and  _59
REMARK   27  A    between atoms: _59  and  _60
REMARK   28  A    between atoms: _60  and  _61
REMARK   29  A    between atoms: _61  and  _62
REMARK   30  A    between atoms: _71  and  _73
REMARK   31  A    between atoms: _73  and  _74
REMARK   32  A    between atoms: _73  and  _76
REMARK   33  A    between atoms: _76  and  _77
REMARK   34  A    between atoms: _83  and  _85
REMARK   35  A    between atoms: _85  and  _86
REMARK   36  A    between atoms: _85  and  _88
REMARK   37  A    between atoms: _88  and  _89
REMARK   38  A    between atoms: _94  and  _96
REMARK   39  A    between atoms: _96  and  _97
REMARK   40  A    between atoms: _96  and  _99
REMARK   41  A    between atoms: _99  and  _100
REMARK   42  A    between atoms: _100  and  _101
REMARK   43  A    between atoms: _103  and  _105
REMARK   44  A    between atoms: _105  and  _106
REMARK   45  A    between atoms: _105  and  _108
REMARK   46  A    between atoms: _108  and  _109
REMARK   47  A    between atoms: _114  and  _115
REMARK   48  A    between atoms: _117  and  _119
REMARK   49  A    between atoms: _119  and  _120
REMARK   50  A    between atoms: _119  and  _122
REMARK   51  A    between atoms: _122  and  _123
REMARK   52  A    between atoms: _123  and  _124
REMARK   53  A    between atoms: _127  and  _129
REMARK   54  A    between atoms: _129  and  _130
REMARK   55  A    between atoms: _129  and  _132
REMARK   56  A    between atoms: _132  and  _133
REMARK   57  A    between atoms: _136  and  _138
REMARK   58  A    between atoms: _138  and  _139
REMARK   59  A    between atoms: _138  and  _141
REMARK   60  A    between atoms: _141  and  _142
REMARK   61  A    between atoms: _147  and  _149
REMARK   62  A    between atoms: _149  and  _150
REMARK   63  A    between atoms: _153  and  _155
REMARK   64  A    between atoms: _155  and  _156
REMARK   65  A    between atoms: _159  and  _161
REMARK   66  A    between atoms: _161  and  _162
REMARK   67  A    between atoms: _164  and  _166
REMARK   68  A    between atoms: _166  and  _167
REMARK   69  A    between atoms: _169  and  _171
REMARK   70  A    between atoms: _171  and  _172
REMARK   71  A    between atoms: _171  and  _174
REMARK   72  A    between atoms: _174  and  _175
REMARK   73  A    between atoms: _178  and  _180
REMARK   74  A    between atoms: _180  and  _181
REMARK   75  A    between atoms: _180  and  _183
REMARK   76  A    between atoms: _183  and  _184
REMARK   77  A    between atoms: _189  and  _190
REMARK   78  A    between atoms: _192  and  _194
REMARK   79  A    between atoms: _194  and  _195
REMARK   80  A    between atoms: _194  and  _197
REMARK   81  A    between atoms: _200  and  _202
REMARK   82  A    between atoms: _202  and  _203
REMARK   83  A    between atoms: _202  and  _205
REMARK   84  A    between atoms: _205  and  _206
REMARK   85  A    between atoms: _206  and  _207
REMARK   86  A    between atoms: _209  and  _211
REMARK   87  A    between atoms: _211  and  _212
REMARK   88  A    between atoms: _211  and  _214
REMARK   89  A    between atoms: _214  and  _215
REMARK   90  A    between atoms: _218  and  _220
REMARK   91  A    between atoms: _220  and  _221
REMARK   92  A    between atoms: _223  and  _225
REMARK   93  A    between atoms: _225  and  _226
REMARK   94  A    between atoms: _229  and  _230
REMARK   95  A    between atoms: _235  and  _237
REMARK   96  A    between atoms: _237  and  _238
REMARK   97  A    between atoms: _237  and  _240
REMARK   98  A    between atoms: _240  and  _241
REMARK   99  A    between atoms: _246  and  _248
REMARK  100  A    between atoms: _248  and  _249
REMARK  101  A    between atoms: _248  and  _251
REMARK  102  A    between atoms: _251  and  _252
REMARK  103  A    between atoms: _258  and  _260
REMARK  104  A    between atoms: _260  and  _261
REMARK  105  A    between atoms: _260  and  _263
REMARK  106  A    between atoms: _263  and  _264
REMARK  107  A    between atoms: _264  and  _265
REMARK  108  A    between atoms: _268  and  _270
REMARK  109  A    between atoms: _270  and  _271
REMARK  110  A    between atoms: _270  and  _273
REMARK  111  A    between atoms: _275  and  _277
REMARK  112  A    between atoms: _277  and  _278
REMARK  113  A    between atoms: _277  and  _280
REMARK  114  A    between atoms: _280  and  _281
REMARK  115  A    between atoms: _284  and  _286
REMARK  116  A    between atoms: _286  and  _287
REMARK  117  A    between atoms: _290  and  _292
REMARK  118  A    between atoms: _292  and  _293
REMARK  119  A    between atoms: _292  and  _295
REMARK  120  A    between atoms: _298  and  _300
REMARK  121  A    between atoms: _300  and  _301
REMARK  122  A    between atoms: _303  and  _305
REMARK  123  A    between atoms: _305  and  _306
REMARK  124  A    between atoms: _305  and  _308
REMARK  125  A    between atoms: _308  and  _309
REMARK  126  A    between atoms: _309  and  _310
REMARK  127  A    between atoms: _312  and  _314
REMARK  128  A    between atoms: _314  and  _315
REMARK  129  A    between atoms: _314  and  _317
REMARK  130  A    between atoms: _317  and  _318
REMARK  131  A    between atoms: _320  and  _322
REMARK  132  A    between atoms: _322  and  _323
REMARK  133  A    between atoms: _322  and  _325
REMARK  134  A    between atoms: _325  and  _326
REMARK  135  A    between atoms: _329  and  _331
REMARK  136  A    between atoms: _331  and  _332
REMARK  137  A    between atoms: _331  and  _334
REMARK  138  A    between atoms: _337  and  _339
REMARK  139  A    between atoms: _339  and  _340
REMARK  140  A    between atoms: _339  and  _342
REMARK  141  A    between atoms: _342  and  _343
REMARK  142  A    between atoms: _343  and  _344
REMARK  143  A    between atoms: _347  and  _349
REMARK  144  A    between atoms: _349  and  _350
REMARK  145  A    between atoms: _349  and  _352
REMARK  146  A    between atoms: _352  and  _353
REMARK  147  A    between atoms: _359  and  _361
REMARK  148  A    between atoms: _361  and  _362
REMARK  149  A    between atoms: _361  and  _364
REMARK  150  A    between atoms: _364  and  _365
REMARK  151  A    between atoms: _367  and  _369
REMARK  152  A    between atoms: _369  and  _370
REMARK  153  A    between atoms: _369  and  _372
REMARK  154  A    between atoms: _372  and  _373
REMARK  155  A    between atoms: _376  and  _378
REMARK  156  A    between atoms: _378  and  _379
REMARK  157  A    between atoms: _378  and  _381
REMARK  158  A    between atoms: _381  and  _382
REMARK  159  A    between atoms: _385  and  _387
REMARK  160  A    between atoms: _387  and  _388
REMARK  161  A    between atoms: _387  and  _390
REMARK  162  A    between atoms: _390  and  _391
REMARK  163  A    between atoms: _394  and  _396
REMARK  164  A    between atoms: _396  and  _397
REMARK  165  A    between atoms: _396  and  _399
REMARK  166  A    between atoms: _399  and  _400
REMARK  167  A    between atoms: _405  and  _407
REMARK  168  A    between atoms: _407  and  _408
REMARK  169  A    between atoms: _407  and  _410
REMARK  170  A    between atoms: _410  and  _411
REMARK  171  A    between atoms: _411  and  _412
REMARK  172  A    between atoms: _412  and  _413
REMARK  173  A    between atoms: _413  and  _414
REMARK  174  A    between atoms: _418  and  _420
REMARK  175  A    between atoms: _420  and  _421
REMARK  176  A    between atoms: _420  and  _423
REMARK  177  A    between atoms: _426  and  _428
REMARK  178  A    between atoms: _428  and  _429
REMARK  179  A    between atoms: _428  and  _431
REMARK  180  A    between atoms: _431  and  _432
REMARK  181  A    between atoms: _435  and  _437
REMARK  182  A    between atoms: _437  and  _438
REMARK  183  A    between atoms: _441  and  _443
REMARK  184  A    between atoms: _443  and  _444
REMARK  185  A    between atoms: _443  and  _446
REMARK  186  A    between atoms: _446  and  _447
REMARK  187  A    between atoms: _452  and  _454
REMARK  188  A    between atoms: _454  and  _455
REMARK  189  A    between atoms: _454  and  _457
REMARK  190  A    between atoms: _457  and  _458
REMARK  191  A    between atoms: _463  and  _465
REMARK  192  A    between atoms: _465  and  _466
REMARK  193  A    between atoms: _465  and  _468
REMARK  194  A    between atoms: _468  and  _469
REMARK  195  A    between atoms: _469  and  _470
REMARK  196  A    between atoms: _473  and  _475
REMARK  197  A    between atoms: _475  and  _476
REMARK  198  A    between atoms: _475  and  _478
REMARK  199  A    between atoms: _481  and  _483
REMARK  200  A    between atoms: _483  and  _484
REMARK  201  A    between atoms: _483  and  _486
REMARK  202  A    between atoms: _486  and  _487
REMARK  203  A    between atoms: _490  and  _492
REMARK  204  A    between atoms: _492  and  _493
REMARK  205  A    between atoms: _492  and  _495
REMARK  206  A    between atoms: _495  and  _496
REMARK  207  A    between atoms: _496  and  _497
REMARK  208  A    between atoms: _497  and  _498
REMARK  209  A    between atoms: _507  and  _509
REMARK  210  A    between atoms: _509  and  _510
REMARK  211  A    between atoms: _509  and  _512
REMARK  212  A    between atoms: _512  and  _513
REMARK                            x       y       z     vdW  Elec       q    Type
REMARK                         _______ _______ _______ _____ _____    ______ ____
ROOT
ATOM      1  O   HOH     1      25.638 -16.819  17.583  0.00  0.00    +0.000 OA
ENDROOT
TORSDOF 0
REMARK  Name = ../refined-set-2016/3fuc/3fuc_pocket.pdb
REMARK  212 active torsions:
REMARK  status: ('A' for Active; 'I' for Inactive)
REMARK    1  A    between atoms: _1  and  _3
REMARK    2  A    between atoms: _3  and  _4
REMARK    3  A    between atoms: _3  and  _6
REMARK    4  A    between atoms: _6  and  _7
REMARK    5  A    between atoms: _10  and  _12
REMARK    6  A    between atoms: _12  and  _13
REMARK    7  A    between atoms: _12  and  _15
REMARK    8  A    between atoms: _17  and  _19
REMARK    9  A    between atoms: _19  and  _20
REMARK   10  A    between atoms: _22  and  _24
REMARK   11  A    between atoms: _24  and  _25
REMARK   12  A    between atoms: _24  and  _27
REMARK   13  A    between atoms: _27  and  _28
REMARK   14  A    between atoms: _30  and  _32
REMARK   15  A    between atoms: _32  and  _33
REMARK   16  A    between atoms: _35  and  _37
REMARK   17  A    between atoms: _37  and  _38
REMARK   18  A    between atoms: _37  and  _40
REMARK   19  A    between atoms: _40  and  _41
REMARK   20  A    between atoms: _44  and  _46
REMARK   21  A    between atoms: _46  and  _47
REMARK   22  A    between atoms: _49  and  _51
REMARK   23  A    between atoms: _51  and  _52
REMARK   24  A    between atoms: _54  and  _56
REMARK   25  A    between atoms: _56  and  _57
REMARK   26  A    between atoms: _56  and  _59
REMARK   27  A    between atoms: _59  and  _60
REMARK   28  A    between atoms: _60  and  _61
REMARK   29  A    between atoms: _61  and  _62
REMARK   30  A    between atoms: _71  and  _73
REMARK   31  A    between atoms: _73  and  _74
REMARK   32  A    between atoms: _73  and  _76
REMARK   33  A    between atoms: _76  and  _77
REMARK   34  A    between atoms: _83  and  _85
REMARK   35  A    between atoms: _85  and  _86
REMARK   36  A    between atoms: _85  and  _88
REMARK   37  A    between atoms: _88  and  _89
REMARK   38  A    between atoms: _94  and  _96
REMARK   39  A    between atoms: _96  and  _97
REMARK   40  A    between atoms: _96  and  _99
REMARK   41  A    between atoms: _99  and  _100
REMARK   42  A    between atoms: _100  and  _101
REMARK   43  A    between atoms: _103  and  _105
REMARK   44  A    between atoms: _105  and  _106
REMARK   45  A    between atoms: _105  and  _108
REMARK   46  A    between atoms: _108  and  _109
REMARK   47  A    between atoms: _114  and  _115
REMARK   48  A    between atoms: _117  and  _119
REMARK   49  A    between atoms: _119  and  _120
REMARK   50  A    between atoms: _119  and  _122
REMARK   51  A    between atoms: _122  and  _123
REMARK   52  A    between atoms: _123  and  _124
REMARK   53  A    between atoms: _127  and  _129
REMARK   54  A    between atoms: _129  and  _130
REMARK   55  A    between atoms: _129  and  _132
REMARK   56  A    between atoms: _132  and  _133
REMARK   57  A    between atoms: _136  and  _138
REMARK   58  A    between atoms: _138  and  _139
REMARK   59  A    between atoms: _138  and  _141
REMARK   60  A    between atoms: _141  and  _142
REMARK   61  A    between atoms: _147  and  _149
REMARK   62  A    between atoms: _149  and  _150
REMARK   63  A    between atoms: _153  and  _155
REMARK   64  A    between atoms: _155  and  _156
REMARK   65  A    between atoms: _159  and  _161
REMARK   66  A    between atoms: _161  and  _162
REMARK   67  A    between atoms: _164  and  _166
REMARK   68  A    between atoms: _166  and  _167
REMARK   69  A    between atoms: _169  and  _171
REMARK   70  A    between atoms: _171  and  _172
REMARK   71  A    between atoms: _171  and  _174
REMARK   72  A    between atoms: _174  and  _175
REMARK   73  A    between atoms: _178  and  _180
REMARK   74  A    between atoms: _180  and  _181
REMARK   75  A    between atoms: _180  and  _183
REMARK   76  A    between atoms: _183  and  _184
REMARK   77  A    between atoms: _189  and  _190
REMARK   78  A    between atoms: _192  and  _194
REMARK   79  A    between atoms: _194  and  _195
REMARK   80  A    between atoms: _194  and  _197
REMARK   81  A    between atoms: _200  and  _202
REMARK   82  A    between atoms: _202  and  _203
REMARK   83  A    between atoms: _202  and  _205
REMARK   84  A    between atoms: _205  and  _206
REMARK   85  A    between atoms: _206  and  _207
REMARK   86  A    between atoms: _209  and  _211
REMARK   87  A    between atoms: _211  and  _212
REMARK   88  A    between atoms: _211  and  _214
REMARK   89  A    between atoms: _214  and  _215
REMARK   90  A    between atoms: _218  and  _220
REMARK   91  A    between atoms: _220  and  _221
REMARK   92  A    between atoms: _223  and  _225
REMARK   93  A    between atoms: _225  and  _226
REMARK   94  A    between atoms: _229  and  _230
REMARK   95  A    between atoms: _235  and  _237
REMARK   96  A    between atoms: _237  and  _238
REMARK   97  A    between atoms: _237  and  _240
REMARK   98  A    between atoms: _240  and  _241
REMARK   99  A    between atoms: _246  and  _248
REMARK  100  A    between atoms: _248  and  _249
REMARK  101  A    between atoms: _248  and  _251
REMARK  102  A    between atoms: _251  and  _252
REMARK  103  A    between atoms: _258  and  _260
REMARK  104  A    between atoms: _260  and  _261
REMARK  105  A    between atoms: _260  and  _263
REMARK  106  A    between atoms: _263  and  _264
REMARK  107  A    between atoms: _264  and  _265
REMARK  108  A    between atoms: _268  and  _270
REMARK  109  A    between atoms: _270  and  _271
REMARK  110  A    between atoms: _270  and  _273
REMARK  111  A    between atoms: _275  and  _277
REMARK  112  A    between atoms: _277  and  _278
REMARK  113  A    between atoms: _277  and  _280
REMARK  114  A    between atoms: _280  and  _281
REMARK  115  A    between atoms: _284  and  _286
REMARK  116  A    between atoms: _286  and  _287
REMARK  117  A    between atoms: _290  and  _292
REMARK  118  A    between atoms: _292  and  _293
REMARK  119  A    between atoms: _292  and  _295
REMARK  120  A    between atoms: _298  and  _300
REMARK  121  A    between atoms: _300  and  _301
REMARK  122  A    between atoms: _303  and  _305
REMARK  123  A    between atoms: _305  and  _306
REMARK  124  A    between atoms: _305  and  _308
REMARK  125  A    between atoms: _308  and  _309
REMARK  126  A    between atoms: _309  and  _310
REMARK  127  A    between atoms: _312  and  _314
REMARK  128  A    between atoms: _314  and  _315
REMARK  129  A    between atoms: _314  and  _317
REMARK  130  A    between atoms: _317  and  _318
REMARK  131  A    between atoms: _320  and  _322
REMARK  132  A    between atoms: _322  and  _323
REMARK  133  A    between atoms: _322  and  _325
REMARK  134  A    between atoms: _325  and  _326
REMARK  135  A    between atoms: _329  and  _331
REMARK  136  A    between atoms: _331  and  _332
REMARK  137  A    between atoms: _331  and  _334
REMARK  138  A    between atoms: _337  and  _339
REMARK  139  A    between atoms: _339  and  _340
REMARK  140  A    between atoms: _339  and  _342
REMARK  141  A    between atoms: _342  and  _343
REMARK  142  A    between atoms: _343  and  _344
REMARK  143  A    between atoms: _347  and  _349
REMARK  144  A    between atoms: _349  and  _350
REMARK  145  A    between atoms: _349  and  _352
REMARK  146  A    between atoms: _352  and  _353
REMARK  147  A    between atoms: _359  and  _361
REMARK  148  A    between atoms: _361  and  _362
REMARK  149  A    between atoms: _361  and  _364
REMARK  150  A    between atoms: _364  and  _365
REMARK  151  A    between atoms: _367  and  _369
REMARK  152  A    between atoms: _369  and  _370
REMARK  153  A    between atoms: _369  and  _372
REMARK  154  A    between atoms: _372  and  _373
REMARK  155  A    between atoms: _376  and  _378
REMARK  156  A    between atoms: _378  and  _379
REMARK  157  A    between atoms: _378  and  _381
REMARK  158  A    between atoms: _381  and  _382
REMARK  159  A    between atoms: _385  and  _387
REMARK  160  A    between atoms: _387  and  _388
REMARK  161  A    between atoms: _387  and  _390
REMARK  162  A    between atoms: _390  and  _391
REMARK  163  A    between atoms: _394  and  _396
REMARK  164  A    between atoms: _396  and  _397
REMARK  165  A    between atoms: _396  and  _399
REMARK  166  A    between atoms: _399  and  _400
REMARK  167  A    between atoms: _405  and  _407
REMARK  168  A    between atoms: _407  and  _408
REMARK  169  A    between atoms: _407  and  _410
REMARK  170  A    between atoms: _410  and  _411
REMARK  171  A    between atoms: _411  and  _412
REMARK  172  A    between atoms: _412  and  _413
REMARK  173  A    between atoms: _413  and  _414
REMARK  174  A    between atoms: _418  and  _420
REMARK  175  A    between atoms: _420  and  _421
REMARK  176  A    between atoms: _420  and  _423
REMARK  177  A    between atoms: _426  and  _428
REMARK  178  A    between atoms: _428  and  _429
REMARK  179  A    between atoms: _428  and  _431
REMARK  180  A    between atoms: _431  and  _432
REMARK  181  A    between atoms: _435  and  _437
REMARK  182  A    between atoms: _437  and  _438
REMARK  183  A    between atoms: _441  and  _443
REMARK  184  A    between atoms: _443  and  _444
REMARK  185  A    between atoms: _443  and  _446
REMARK  186  A    between atoms: _446  and  _447
REMARK  187  A    between atoms: _452  and  _454
REMARK  188  A    between atoms: _454  and  _455
REMARK  189  A    between atoms: _454  and  _457
REMARK  190  A    between atoms: _457  and  _458
REMARK  191  A    between atoms: _463  and  _465
REMARK  192  A    between atoms: _465  and  _466
REMARK  193  A    between atoms: _465  and  _468
REMARK  194  A    between atoms: _468  and  _469
REMARK  195  A    between atoms: _469  and  _470
REMARK  196  A    between atoms: _473  and  _475
REMARK  197  A    between atoms: _475  and  _476
REMARK  198  A    between atoms: _475  and  _478
REMARK  199  A    between atoms: _481  and  _483
REMARK  200  A    between atoms: _483  and  _484
REMARK  201  A    between atoms: _483  and  _486
REMARK  202  A    between atoms: _486  and  _487
REMARK  203  A    between atoms: _490  and  _492
REMARK  204  A    between atoms: _492  and  _493
REMARK  205  A    between atoms: _492  and  _495
REMARK  206  A    between atoms: _495  and  _496
REMARK  207  A    between atoms: _496  and  _497
REMARK  208  A    between atoms: _497  and  _498
REMARK  209  A    between atoms: _507  and  _509
REMARK  210  A    between atoms: _509  and  _510
REMARK  211  A    between atoms: _509  and  _512
REMARK  212  A    between atoms: _512  and  _513
REMARK                            x       y       z     vdW  Elec       q    Type
REMARK                         _______ _______ _______ _____ _____    ______ ____
ROOT
ATOM      1  O   HOH     1      29.355 -12.136  26.980  0.00  0.00    +0.000 OA
ENDROOT
TORSDOF 0
REMARK  Name = ../refined-set-2016/3fuc/3fuc_pocket.pdb
REMARK  212 active torsions:
REMARK  status: ('A' for Active; 'I' for Inactive)
REMARK    1  A    between atoms: _1  and  _3
REMARK    2  A    between atoms: _3  and  _4
REMARK    3  A    between atoms: _3  and  _6
REMARK    4  A    between atoms: _6  and  _7
REMARK    5  A    between atoms: _10  and  _12
REMARK    6  A    between atoms: _12  and  _13
REMARK    7  A    between atoms: _12  and  _15
REMARK    8  A    between atoms: _17  and  _19
REMARK    9  A    between atoms: _19  and  _20
REMARK   10  A    between atoms: _22  and  _24
REMARK   11  A    between atoms: _24  and  _25
REMARK   12  A    between atoms: _24  and  _27
REMARK   13  A    between atoms: _27  and  _28
REMARK   14  A    between atoms: _30  and  _32
REMARK   15  A    between atoms: _32  and  _33
REMARK   16  A    between atoms: _35  and  _37
REMARK   17  A    between atoms: _37  and  _38
REMARK   18  A    between atoms: _37  and  _40
REMARK   19  A    between atoms: _40  and  _41
REMARK   20  A    between atoms: _44  and  _46
REMARK   21  A    between atoms: _46  and  _47
REMARK   22  A    between atoms: _49  and  _51
REMARK   23  A    between atoms: _51  and  _52
REMARK   24  A    between atoms: _54  and  _56
REMARK   25  A    between atoms: _56  and  _57
REMARK   26  A    between atoms: _56  and  _59
REMARK   27  A    between atoms: _59  and  _60
REMARK   28  A    between atoms: _60  and  _61
REMARK   29  A    between atoms: _61  and  _62
REMARK   30  A    between atoms: _71  and  _73
REMARK   31  A    between atoms: _73  and  _74
REMARK   32  A    between atoms: _73  and  _76
REMARK   33  A    between atoms: _76  and  _77
REMARK   34  A    between atoms: _83  and  _85
REMARK   35  A    between atoms: _85  and  _86
REMARK   36  A    between atoms: _85  and  _88
REMARK   37  A    between atoms: _88  and  _89
REMARK   38  A    between atoms: _94  and  _96
REMARK   39  A    between atoms: _96  and  _97
REMARK   40  A    between atoms: _96  and  _99
REMARK   41  A    between atoms: _99  and  _100
REMARK   42  A    between atoms: _100  and  _101
REMARK   43  A    between atoms: _103  and  _105
REMARK   44  A    between atoms: _105  and  _106
REMARK   45  A    between atoms: _105  and  _108
REMARK   46  A    between atoms: _108  and  _109
REMARK   47  A    between atoms: _114  and  _115
REMARK   48  A    between atoms: _117  and  _119
REMARK   49  A    between atoms: _119  and  _120
REMARK   50  A    between atoms: _119  and  _122
REMARK   51  A    between atoms: _122  and  _123
REMARK   52  A    between atoms: _123  and  _124
REMARK   53  A    between atoms: _127  and  _129
REMARK   54  A    between atoms: _129  and  _130
REMARK   55  A    between atoms: _129  and  _132
REMARK   56  A    between atoms: _132  and  _133
REMARK   57  A    between atoms: _136  and  _138
REMARK   58  A    between atoms: _138  and  _139
REMARK   59  A    between atoms: _138  and  _141
REMARK   60  A    between atoms: _141  and  _142
REMARK   61  A    between atoms: _147  and  _149
REMARK   62  A    between atoms: _149  and  _150
REMARK   63  A    between atoms: _153  and  _155
REMARK   64  A    between atoms: _155  and  _156
REMARK   65  A    between atoms: _159  and  _161
REMARK   66  A    between atoms: _161  and  _162
REMARK   67  A    between atoms: _164  and  _166
REMARK   68  A    between atoms: _166  and  _167
REMARK   69  A    between atoms: _169  and  _171
REMARK   70  A    between atoms: _171  and  _172
REMARK   71  A    between atoms: _171  and  _174
REMARK   72  A    between atoms: _174  and  _175
REMARK   73  A    between atoms: _178  and  _180
REMARK   74  A    between atoms: _180  and  _181
REMARK   75  A    between atoms: _180  and  _183
REMARK   76  A    between atoms: _183  and  _184
REMARK   77  A    between atoms: _189  and  _190
REMARK   78  A    between atoms: _192  and  _194
REMARK   79  A    between atoms: _194  and  _195
REMARK   80  A    between atoms: _194  and  _197
REMARK   81  A    between atoms: _200  and  _202
REMARK   82  A    between atoms: _202  and  _203
REMARK   83  A    between atoms: _202  and  _205
REMARK   84  A    between atoms: _205  and  _206
REMARK   85  A    between atoms: _206  and  _207
REMARK   86  A    between atoms: _209  and  _211
REMARK   87  A    between atoms: _211  and  _212
REMARK   88  A    between atoms: _211  and  _214
REMARK   89  A    between atoms: _214  and  _215
REMARK   90  A    between atoms: _218  and  _220
REMARK   91  A    between atoms: _220  and  _221
REMARK   92  A    between atoms: _223  and  _225
REMARK   93  A    between atoms: _225  and  _226
REMARK   94  A    between atoms: _229  and  _230
REMARK   95  A    between atoms: _235  and  _237
REMARK   96  A    between atoms: _237  and  _238
REMARK   97  A    between atoms: _237  and  _240
REMARK   98  A    between atoms: _240  and  _241
REMARK   99  A    between atoms: _246  and  _248
REMARK  100  A    between atoms: _248  and  _249
REMARK  101  A    between atoms: _248  and  _251
REMARK  102  A    between atoms: _251  and  _252
REMARK  103  A    between atoms: _258  and  _260
REMARK  104  A    between atoms: _260  and  _261
REMARK  105  A    between atoms: _260  and  _263
REMARK  106  A    between atoms: _263  and  _264
REMARK  107  A    between atoms: _264  and  _265
REMARK  108  A    between atoms: _268  and  _270
REMARK  109  A    between atoms: _270  and  _271
REMARK  110  A    between atoms: _270  and  _273
REMARK  111  A    between atoms: _275  and  _277
REMARK  112  A    between atoms: _277  and  _278
REMARK  113  A    between atoms: _277  and  _280
REMARK  114  A    between atoms: _280  and  _281
REMARK  115  A    between atoms: _284  and  _286
REMARK  116  A    between atoms: _286  and  _287
REMARK  117  A    between atoms: _290  and  _292
REMARK  118  A    between atoms: _292  and  _293
REMARK  119  A    between atoms: _292  and  _295
REMARK  120  A    between atoms: _298  and  _300
REMARK  121  A    between atoms: _300  and  _301
REMARK  122  A    between atoms: _303  and  _305
REMARK  123  A    between atoms: _305  and  _306
REMARK  124  A    between atoms: _305  and  _308
REMARK  125  A    between atoms: _308  and  _309
REMARK  126  A    between atoms: _309  and  _310
REMARK  127  A    between atoms: _312  and  _314
REMARK  128  A    between atoms: _314  and  _315
REMARK  129  A    between atoms: _314  and  _317
REMARK  130  A    between atoms: _317  and  _318
REMARK  131  A    between atoms: _320  and  _322
REMARK  132  A    between atoms: _322  and  _323
REMARK  133  A    between atoms: _322  and  _325
REMARK  134  A    between atoms: _325  and  _326
REMARK  135  A    between atoms: _329  and  _331
REMARK  136  A    between atoms: _331  and  _332
REMARK  137  A    between atoms: _331  and  _334
REMARK  138  A    between atoms: _337  and  _339
REMARK  139  A    between atoms: _339  and  _340
REMARK  140  A    between atoms: _339  and  _342
REMARK  141  A    between atoms: _342  and  _343
REMARK  142  A    between atoms: _343  and  _344
REMARK  143  A    between atoms: _347  and  _349
REMARK  144  A    between atoms: _349  and  _350
REMARK  145  A    between atoms: _349  and  _352
REMARK  146  A    between atoms: _352  and  _353
REMARK  147  A    between atoms: _359  and  _361
REMARK  148  A    between atoms: _361  and  _362
REMARK  149  A    between atoms: _361  and  _364
REMARK  150  A    between atoms: _364  and  _365
REMARK  151  A    between atoms: _367  and  _369
REMARK  152  A    between atoms: _369  and  _370
REMARK  153  A    between atoms: _369  and  _372
REMARK  154  A    between atoms: _372  and  _373
REMARK  155  A    between atoms: _376  and  _378
REMARK  156  A    between atoms: _378  and  _379
REMARK  157  A    between atoms: _378  and  _381
REMARK  158  A    between atoms: _381  and  _382
REMARK  159  A    between atoms: _385  and  _387
REMARK  160  A    between atoms: _387  and  _388
REMARK  161  A    between atoms: _387  and  _390
REMARK  162  A    between atoms: _390  and  _391
REMARK  163  A    between atoms: _394  and  _396
REMARK  164  A    between atoms: _396  and  _397
REMARK  165  A    between atoms: _396  and  _399
REMARK  166  A    between atoms: _399  and  _400
REMARK  167  A    between atoms: _405  and  _407
REMARK  168  A    between atoms: _407  and  _408
REMARK  169  A    between atoms: _407  and  _410
REMARK  170  A    between atoms: _410  and  _411
REMARK  171  A    between atoms: _411  and  _412
REMARK  172  A    between atoms: _412  and  _413
REMARK  173  A    between atoms: _413  and  _414
REMARK  174  A    between atoms: _418  and  _420
REMARK  175  A    between atoms: _420  and  _421
REMARK  176  A    between atoms: _420  and  _423
REMARK  177  A    between atoms: _426  and  _428
REMARK  178  A    between atoms: _428  and  _429
REMARK  179  A    between atoms: _428  and  _431
REMARK  180  A    between atoms: _431  and  _432
REMARK  181  A    between atoms: _435  and  _437
REMARK  182  A    between atoms: _437  and  _438
REMARK  183  A    between atoms: _441  and  _443
REMARK  184  A    between atoms: _443  and  _444
REMARK  185  A    between atoms: _443  and  _446
REMARK  186  A    between atoms: _446  and  _447
REMARK  187  A    between atoms: _452  and  _454
REMARK  188  A    between atoms: _454  and  _455
REMARK  189  A    between atoms: _454  and  _457
REMARK  190  A    between atoms: _457  and  _458
REMARK  191  A    between atoms: _463  and  _465
REMARK  192  A    between atoms: _465  and  _466
REMARK  193  A    between atoms: _465  and  _468
REMARK  194  A    between atoms: _468  and  _469
REMARK  195  A    between atoms: _469  and  _470
REMARK  196  A    between atoms: _473  and  _475
REMARK  197  A    between atoms: _475  and  _476
REMARK  198  A    between atoms: _475  and  _478
REMARK  199  A    between atoms: _481  and  _483
REMARK  200  A    between atoms: _483  and  _484
REMARK  201  A    between atoms: _483  and  _486
REMARK  202  A    between atoms: _486  and  _487
REMARK  203  A    between atoms: _490  and  _492
REMARK  204  A    between atoms: _492  and  _493
REMARK  205  A    between atoms: _492  and  _495
REMARK  206  A    between atoms: _495  and  _496
REMARK  207  A    between atoms: _496  and  _497
REMARK  208  A    between atoms: _497  and  _498
REMARK  209  A    between atoms: _507  and  _509
REMARK  210  A    between atoms: _509  and  _510
REMARK  211  A    between atoms: _509  and  _512
REMARK  212  A    between atoms: _512  and  _513
REMARK                            x       y       z     vdW  Elec       q    Type
REMARK                         _______ _______ _______ _____ _____    ______ ____
ROOT
ATOM      1  O   HOH     1      33.395   0.387  35.152  0.00  0.00    +0.000 OA
ENDROOT
TORSDOF 0
REMARK  Name = ../refined-set-2016/3fuc/3fuc_pocket.pdb
REMARK  212 active torsions:
REMARK  status: ('A' for Active; 'I' for Inactive)
REMARK    1  A    between atoms: _1  and  _3
REMARK    2  A    between atoms: _3  and  _4
REMARK    3  A    between atoms: _3  and  _6
REMARK    4  A    between atoms: _6  and  _7
REMARK    5  A    between atoms: _10  and  _12
REMARK    6  A    between atoms: _12  and  _13
REMARK    7  A    between atoms: _12  and  _15
REMARK    8  A    between atoms: _17  and  _19
REMARK    9  A    between atoms: _19  and  _20
REMARK   10  A    between atoms: _22  and  _24
REMARK   11  A    between atoms: _24  and  _25
REMARK   12  A    between atoms: _24  and  _27
REMARK   13  A    between atoms: _27  and  _28
REMARK   14  A    between atoms: _30  and  _32
REMARK   15  A    between atoms: _32  and  _33
REMARK   16  A    between atoms: _35  and  _37
REMARK   17  A    between atoms: _37  and  _38
REMARK   18  A    between atoms: _37  and  _40
REMARK   19  A    between atoms: _40  and  _41
REMARK   20  A    between atoms: _44  and  _46
REMARK   21  A    between atoms: _46  and  _47
REMARK   22  A    between atoms: _49  and  _51
REMARK   23  A    between atoms: _51  and  _52
REMARK   24  A    between atoms: _54  and  _56
REMARK   25  A    between atoms: _56  and  _57
REMARK   26  A    between atoms: _56  and  _59
REMARK   27  A    between atoms: _59  and  _60
REMARK   28  A    between atoms: _60  and  _61
REMARK   29  A    between atoms: _61  and  _62
REMARK   30  A    between atoms: _71  and  _73
REMARK   31  A    between atoms: _73  and  _74
REMARK   32  A    between atoms: _73  and  _76
REMARK   33  A    between atoms: _76  and  _77
REMARK   34  A    between atoms: _83  and  _85
REMARK   35  A    between atoms: _85  and  _86
REMARK   36  A    between atoms: _85  and  _88
REMARK   37  A    between atoms: _88  and  _89
REMARK   38  A    between atoms: _94  and  _96
REMARK   39  A    between atoms: _96  and  _97
REMARK   40  A    between atoms: _96  and  _99
REMARK   41  A    between atoms: _99  and  _100
REMARK   42  A    between atoms: _100  and  _101
REMARK   43  A    between atoms: _103  and  _105
REMARK   44  A    between atoms: _105  and  _106
REMARK   45  A    between atoms: _105  and  _108
REMARK   46  A    between atoms: _108  and  _109
REMARK   47  A    between atoms: _114  and  _115
REMARK   48  A    between atoms: _117  and  _119
REMARK   49  A    between atoms: _119  and  _120
REMARK   50  A    between atoms: _119  and  _122
REMARK   51  A    between atoms: _122  and  _123
REMARK   52  A    between atoms: _123  and  _124
REMARK   53  A    between atoms: _127  and  _129
REMARK   54  A    between atoms: _129  and  _130
REMARK   55  A    between atoms: _129  and  _132
REMARK   56  A    between atoms: _132  and  _133
REMARK   57  A    between atoms: _136  and  _138
REMARK   58  A    between atoms: _138  and  _139
REMARK   59  A    between atoms: _138  and  _141
REMARK   60  A    between atoms: _141  and  _142
REMARK   61  A    between atoms: _147  and  _149
REMARK   62  A    between atoms: _149  and  _150
REMARK   63  A    between atoms: _153  and  _155
REMARK   64  A    between atoms: _155  and  _156
REMARK   65  A    between atoms: _159  and  _161
REMARK   66  A    between atoms: _161  and  _162
REMARK   67  A    between atoms: _164  and  _166
REMARK   68  A    between atoms: _166  and  _167
REMARK   69  A    between atoms: _169  and  _171
REMARK   70  A    between atoms: _171  and  _172
REMARK   71  A    between atoms: _171  and  _174
REMARK   72  A    between atoms: _174  and  _175
REMARK   73  A    between atoms: _178  and  _180
REMARK   74  A    between atoms: _180  and  _181
REMARK   75  A    between atoms: _180  and  _183
REMARK   76  A    between atoms: _183  and  _184
REMARK   77  A    between atoms: _189  and  _190
REMARK   78  A    between atoms: _192  and  _194
REMARK   79  A    between atoms: _194  and  _195
REMARK   80  A    between atoms: _194  and  _197
REMARK   81  A    between atoms: _200  and  _202
REMARK   82  A    between atoms: _202  and  _203
REMARK   83  A    between atoms: _202  and  _205
REMARK   84  A    between atoms: _205  and  _206
REMARK   85  A    between atoms: _206  and  _207
REMARK   86  A    between atoms: _209  and  _211
REMARK   87  A    between atoms: _211  and  _212
REMARK   88  A    between atoms: _211  and  _214
REMARK   89  A    between atoms: _214  and  _215
REMARK   90  A    between atoms: _218  and  _220
REMARK   91  A    between atoms: _220  and  _221
REMARK   92  A    between atoms: _223  and  _225
REMARK   93  A    between atoms: _225  and  _226
REMARK   94  A    between atoms: _229  and  _230
REMARK   95  A    between atoms: _235  and  _237
REMARK   96  A    between atoms: _237  and  _238
REMARK   97  A    between atoms: _237  and  _240
REMARK   98  A    between atoms: _240  and  _241
REMARK   99  A    between atoms: _246  and  _248
REMARK  100  A    between atoms: _248  and  _249
REMARK  101  A    between atoms: _248  and  _251
REMARK  102  A    between atoms: _251  and  _252
REMARK  103  A    between atoms: _258  and  _260
REMARK  104  A    between atoms: _260  and  _261
REMARK  105  A    between atoms: _260  and  _263
REMARK  106  A    between atoms: _263  and  _264
REMARK  107  A    between atoms: _264  and  _265
REMARK  108  A    between atoms: _268  and  _270
REMARK  109  A    between atoms: _270  and  _271
REMARK  110  A    between atoms: _270  and  _273
REMARK  111  A    between atoms: _275  and  _277
REMARK  112  A    between atoms: _277  and  _278
REMARK  113  A    between atoms: _277  and  _280
REMARK  114  A    between atoms: _280  and  _281
REMARK  115  A    between atoms: _284  and  _286
REMARK  116  A    between atoms: _286  and  _287
REMARK  117  A    between atoms: _290  and  _292
REMARK  118  A    between atoms: _292  and  _293
REMARK  119  A    between atoms: _292  and  _295
REMARK  120  A    between atoms: _298  and  _300
REMARK  121  A    between atoms: _300  and  _301
REMARK  122  A    between atoms: _303  and  _305
REMARK  123  A    between atoms: _305  and  _306
REMARK  124  A    between atoms: _305  and  _308
REMARK  125  A    between atoms: _308  and  _309
REMARK  126  A    between atoms: _309  and  _310
REMARK  127  A    between atoms: _312  and  _314
REMARK  128  A    between atoms: _314  and  _315
REMARK  129  A    between atoms: _314  and  _317
REMARK  130  A    between atoms: _317  and  _318
REMARK  131  A    between atoms: _320  and  _322
REMARK  132  A    between atoms: _322  and  _323
REMARK  133  A    between atoms: _322  and  _325
REMARK  134  A    between atoms: _325  and  _326
REMARK  135  A    between atoms: _329  and  _331
REMARK  136  A    between atoms: _331  and  _332
REMARK  137  A    between atoms: _331  and  _334
REMARK  138  A    between atoms: _337  and  _339
REMARK  139  A    between atoms: _339  and  _340
REMARK  140  A    between atoms: _339  and  _342
REMARK  141  A    between atoms: _342  and  _343
REMARK  142  A    between atoms: _343  and  _344
REMARK  143  A    between atoms: _347  and  _349
REMARK  144  A    between atoms: _349  and  _350
REMARK  145  A    between atoms: _349  and  _352
REMARK  146  A    between atoms: _352  and  _353
REMARK  147  A    between atoms: _359  and  _361
REMARK  148  A    between atoms: _361  and  _362
REMARK  149  A    between atoms: _361  and  _364
REMARK  150  A    between atoms: _364  and  _365
REMARK  151  A    between atoms: _367  and  _369
REMARK  152  A    between atoms: _369  and  _370
REMARK  153  A    between atoms: _369  and  _372
REMARK  154  A    between atoms: _372  and  _373
REMARK  155  A    between atoms: _376  and  _378
REMARK  156  A    between atoms: _378  and  _379
REMARK  157  A    between atoms: _378  and  _381
REMARK  158  A    between atoms: _381  and  _382
REMARK  159  A    between atoms: _385  and  _387
REMARK  160  A    between atoms: _387  and  _388
REMARK  161  A    between atoms: _387  and  _390
REMARK  162  A    between atoms: _390  and  _391
REMARK  163  A    between atoms: _394  and  _396
REMARK  164  A    between atoms: _396  and  _397
REMARK  165  A    between atoms: _396  and  _399
REMARK  166  A    between atoms: _399  and  _400
REMARK  167  A    between atoms: _405  and  _407
REMARK  168  A    between atoms: _407  and  _408
REMARK  169  A    between atoms: _407  and  _410
REMARK  170  A    between atoms: _410  and  _411
REMARK  171  A    between atoms: _411  and  _412
REMARK  172  A    between atoms: _412  and  _413
REMARK  173  A    between atoms: _413  and  _414
REMARK  174  A    between atoms: _418  and  _420
REMARK  175  A    between atoms: _420  and  _421
REMARK  176  A    between atoms: _420  and  _423
REMARK  177  A    between atoms: _426  and  _428
REMARK  178  A    between atoms: _428  and  _429
REMARK  179  A    between atoms: _428  and  _431
REMARK  180  A    between atoms: _431  and  _432
REMARK  181  A    between atoms: _435  and  _437
REMARK  182  A    between atoms: _437  and  _438
REMARK  183  A    between atoms: _441  and  _443
REMARK  184  A    between atoms: _443  and  _444
REMARK  185  A    between atoms: _443  and  _446
REMARK  186  A    between atoms: _446  and  _447
REMARK  187  A    between atoms: _452  and  _454
REMARK  188  A    between atoms: _454  and  _455
REMARK  189  A    between atoms: _454  and  _457
REMARK  190  A    between atoms: _457  and  _458
REMARK  191  A    between atoms: _463  and  _465
REMARK  192  A    between atoms: _465  and  _466
REMARK  193  A    between atoms: _465  and  _468
REMARK  194  A    between atoms: _468  and  _469
REMARK  195  A    between atoms: _469  and  _470
REMARK  196  A    between atoms: _473  and  _475
REMARK  197  A    between atoms: _475  and  _476
REMARK  198  A    between atoms: _475  and  _478
REMARK  199  A    between atoms: _481  and  _483
REMARK  200  A    between atoms: _483  and  _484
REMARK  201  A    between atoms: _483  and  _486
REMARK  202  A    between atoms: _486  and  _487
REMARK  203  A    between atoms: _490  and  _492
REMARK  204  A    between atoms: _492  and  _493
REMARK  205  A    between atoms: _492  and  _495
REMARK  206  A    between atoms: _495  and  _496
REMARK  207  A    between atoms: _496  and  _497
REMARK  208  A    between atoms: _497  and  _498
REMARK  209  A    between atoms: _507  and  _509
REMARK  210  A    between atoms: _509  and  _510
REMARK  211  A    between atoms: _509  and  _512
REMARK  212  A    between atoms: _512  and  _513
REMARK                            x       y       z     vdW  Elec       q    Type
REMARK                         _______ _______ _______ _____ _____    ______ ____
ROOT
ATOM      1  O   HOH     1      33.083  -3.448  32.695  0.00  0.00    +0.000 OA
ENDROOT
TORSDOF 0
REMARK  Name = ../refined-set-2016/3fuc/3fuc_pocket.pdb
REMARK  212 active torsions:
REMARK  status: ('A' for Active; 'I' for Inactive)
REMARK    1  A    between atoms: _1  and  _3
REMARK    2  A    between atoms: _3  and  _4
REMARK    3  A    between atoms: _3  and  _6
REMARK    4  A    between atoms: _6  and  _7
REMARK    5  A    between atoms: _10  and  _12
REMARK    6  A    between atoms: _12  and  _13
REMARK    7  A    between atoms: _12  and  _15
REMARK    8  A    between atoms: _17  and  _19
REMARK    9  A    between atoms: _19  and  _20
REMARK   10  A    between atoms: _22  and  _24
REMARK   11  A    between atoms: _24  and  _25
REMARK   12  A    between atoms: _24  and  _27
REMARK   13  A    between atoms: _27  and  _28
REMARK   14  A    between atoms: _30  and  _32
REMARK   15  A    between atoms: _32  and  _33
REMARK   16  A    between atoms: _35  and  _37
REMARK   17  A    between atoms: _37  and  _38
REMARK   18  A    between atoms: _37  and  _40
REMARK   19  A    between atoms: _40  and  _41
REMARK   20  A    between atoms: _44  and  _46
REMARK   21  A    between atoms: _46  and  _47
REMARK   22  A    between atoms: _49  and  _51
REMARK   23  A    between atoms: _51  and  _52
REMARK   24  A    between atoms: _54  and  _56
REMARK   25  A    between atoms: _56  and  _57
REMARK   26  A    between atoms: _56  and  _59
REMARK   27  A    between atoms: _59  and  _60
REMARK   28  A    between atoms: _60  and  _61
REMARK   29  A    between atoms: _61  and  _62
REMARK   30  A    between atoms: _71  and  _73
REMARK   31  A    between atoms: _73  and  _74
REMARK   32  A    between atoms: _73  and  _76
REMARK   33  A    between atoms: _76  and  _77
REMARK   34  A    between atoms: _83  and  _85
REMARK   35  A    between atoms: _85  and  _86
REMARK   36  A    between atoms: _85  and  _88
REMARK   37  A    between atoms: _88  and  _89
REMARK   38  A    between atoms: _94  and  _96
REMARK   39  A    between atoms: _96  and  _97
REMARK   40  A    between atoms: _96  and  _99
REMARK   41  A    between atoms: _99  and  _100
REMARK   42  A    between atoms: _100  and  _101
REMARK   43  A    between atoms: _103  and  _105
REMARK   44  A    between atoms: _105  and  _106
REMARK   45  A    between atoms: _105  and  _108
REMARK   46  A    between atoms: _108  and  _109
REMARK   47  A    between atoms: _114  and  _115
REMARK   48  A    between atoms: _117  and  _119
REMARK   49  A    between atoms: _119  and  _120
REMARK   50  A    between atoms: _119  and  _122
REMARK   51  A    between atoms: _122  and  _123
REMARK   52  A    between atoms: _123  and  _124
REMARK   53  A    between atoms: _127  and  _129
REMARK   54  A    between atoms: _129  and  _130
REMARK   55  A    between atoms: _129  and  _132
REMARK   56  A    between atoms: _132  and  _133
REMARK   57  A    between atoms: _136  and  _138
REMARK   58  A    between atoms: _138  and  _139
REMARK   59  A    between atoms: _138  and  _141
REMARK   60  A    between atoms: _141  and  _142
REMARK   61  A    between atoms: _147  and  _149
REMARK   62  A    between atoms: _149  and  _150
REMARK   63  A    between atoms: _153  and  _155
REMARK   64  A    between atoms: _155  and  _156
REMARK   65  A    between atoms: _159  and  _161
REMARK   66  A    between atoms: _161  and  _162
REMARK   67  A    between atoms: _164  and  _166
REMARK   68  A    between atoms: _166  and  _167
REMARK   69  A    between atoms: _169  and  _171
REMARK   70  A    between atoms: _171  and  _172
REMARK   71  A    between atoms: _171  and  _174
REMARK   72  A    between atoms: _174  and  _175
REMARK   73  A    between atoms: _178  and  _180
REMARK   74  A    between atoms: _180  and  _181
REMARK   75  A    between atoms: _180  and  _183
REMARK   76  A    between atoms: _183  and  _184
REMARK   77  A    between atoms: _189  and  _190
REMARK   78  A    between atoms: _192  and  _194
REMARK   79  A    between atoms: _194  and  _195
REMARK   80  A    between atoms: _194  and  _197
REMARK   81  A    between atoms: _200  and  _202
REMARK   82  A    between atoms: _202  and  _203
REMARK   83  A    between atoms: _202  and  _205
REMARK   84  A    between atoms: _205  and  _206
REMARK   85  A    between atoms: _206  and  _207
REMARK   86  A    between atoms: _209  and  _211
REMARK   87  A    between atoms: _211  and  _212
REMARK   88  A    between atoms: _211  and  _214
REMARK   89  A    between atoms: _214  and  _215
REMARK   90  A    between atoms: _218  and  _220
REMARK   91  A    between atoms: _220  and  _221
REMARK   92  A    between atoms: _223  and  _225
REMARK   93  A    between atoms: _225  and  _226
REMARK   94  A    between atoms: _229  and  _230
REMARK   95  A    between atoms: _235  and  _237
REMARK   96  A    between atoms: _237  and  _238
REMARK   97  A    between atoms: _237  and  _240
REMARK   98  A    between atoms: _240  and  _241
REMARK   99  A    between atoms: _246  and  _248
REMARK  100  A    between atoms: _248  and  _249
REMARK  101  A    between atoms: _248  and  _251
REMARK  102  A    between atoms: _251  and  _252
REMARK  103  A    between atoms: _258  and  _260
REMARK  104  A    between atoms: _260  and  _261
REMARK  105  A    between atoms: _260  and  _263
REMARK  106  A    between atoms: _263  and  _264
REMARK  107  A    between atoms: _264  and  _265
REMARK  108  A    between atoms: _268  and  _270
REMARK  109  A    between atoms: _270  and  _271
REMARK  110  A    between atoms: _270  and  _273
REMARK  111  A    between atoms: _275  and  _277
REMARK  112  A    between atoms: _277  and  _278
REMARK  113  A    between atoms: _277  and  _280
REMARK  114  A    between atoms: _280  and  _281
REMARK  115  A    between atoms: _284  and  _286
REMARK  116  A    between atoms: _286  and  _287
REMARK  117  A    between atoms: _290  and  _292
REMARK  118  A    between atoms: _292  and  _293
REMARK  119  A    between atoms: _292  and  _295
REMARK  120  A    between atoms: _298  and  _300
REMARK  121  A    between atoms: _300  and  _301
REMARK  122  A    between atoms: _303  and  _305
REMARK  123  A    between atoms: _305  and  _306
REMARK  124  A    between atoms: _305  and  _308
REMARK  125  A    between atoms: _308  and  _309
REMARK  126  A    between atoms: _309  and  _310
REMARK  127  A    between atoms: _312  and  _314
REMARK  128  A    between atoms: _314  and  _315
REMARK  129  A    between atoms: _314  and  _317
REMARK  130  A    between atoms: _317  and  _318
REMARK  131  A    between atoms: _320  and  _322
REMARK  132  A    between atoms: _322  and  _323
REMARK  133  A    between atoms: _322  and  _325
REMARK  134  A    between atoms: _325  and  _326
REMARK  135  A    between atoms: _329  and  _331
REMARK  136  A    between atoms: _331  and  _332
REMARK  137  A    between atoms: _331  and  _334
REMARK  138  A    between atoms: _337  and  _339
REMARK  139  A    between atoms: _339  and  _340
REMARK  140  A    between atoms: _339  and  _342
REMARK  141  A    between atoms: _342  and  _343
REMARK  142  A    between atoms: _343  and  _344
REMARK  143  A    between atoms: _347  and  _349
REMARK  144  A    between atoms: _349  and  _350
REMARK  145  A    between atoms: _349  and  _352
REMARK  146  A    between atoms: _352  and  _353
REMARK  147  A    between atoms: _359  and  _361
REMARK  148  A    between atoms: _361  and  _362
REMARK  149  A    between atoms: _361  and  _364
REMARK  150  A    between atoms: _364  and  _365
REMARK  151  A    between atoms: _367  and  _369
REMARK  152  A    between atoms: _369  and  _370
REMARK  153  A    between atoms: _369  and  _372
REMARK  154  A    between atoms: _372  and  _373
REMARK  155  A    between atoms: _376  and  _378
REMARK  156  A    between atoms: _378  and  _379
REMARK  157  A    between atoms: _378  and  _381
REMARK  158  A    between atoms: _381  and  _382
REMARK  159  A    between atoms: _385  and  _387
REMARK  160  A    between atoms: _387  and  _388
REMARK  161  A    between atoms: _387  and  _390
REMARK  162  A    between atoms: _390  and  _391
REMARK  163  A    between atoms: _394  and  _396
REMARK  164  A    between atoms: _396  and  _397
REMARK  165  A    between atoms: _396  and  _399
REMARK  166  A    between atoms: _399  and  _400
REMARK  167  A    between atoms: _405  and  _407
REMARK  168  A    between atoms: _407  and  _408
REMARK  169  A    between atoms: _407  and  _410
REMARK  170  A    between atoms: _410  and  _411
REMARK  171  A    between atoms: _411  and  _412
REMARK  172  A    between atoms: _412  and  _413
REMARK  173  A    between atoms: _413  and  _414
REMARK  174  A    between atoms: _418  and  _420
REMARK  175  A    between atoms: _420  and  _421
REMARK  176  A    between atoms: _420  and  _423
REMARK  177  A    between atoms: _426  and  _428
REMARK  178  A    between atoms: _428  and  _429
REMARK  179  A    between atoms: _428  and  _431
REMARK  180  A    between atoms: _431  and  _432
REMARK  181  A    between atoms: _435  and  _437
REMARK  182  A    between atoms: _437  and  _438
REMARK  183  A    between atoms: _441  and  _443
REMARK  184  A    between atoms: _443  and  _444
REMARK  185  A    between atoms: _443  and  _446
REMARK  186  A    between atoms: _446  and  _447
REMARK  187  A    between atoms: _452  and  _454
REMARK  188  A    between atoms: _454  and  _455
REMARK  189  A    between atoms: _454  and  _457
REMARK  190  A    between atoms: _457  and  _458
REMARK  191  A    between atoms: _463  and  _465
REMARK  192  A    between atoms: _465  and  _466
REMARK  193  A    between atoms: _465  and  _468
REMARK  194  A    between atoms: _468  and  _469
REMARK  195  A    between atoms: _469  and  _470
REMARK  196  A    between atoms: _473  and  _475
REMARK  197  A    between atoms: _475  and  _476
REMARK  198  A    between atoms: _475  and  _478
REMARK  199  A    between atoms: _481  and  _483
REMARK  200  A    between atoms: _483  and  _484
REMARK  201  A    between atoms: _483  and  _486
REMARK  202  A    between atoms: _486  and  _487
REMARK  203  A    between atoms: _490  and  _492
REMARK  204  A    between atoms: _492  and  _493
REMARK  205  A    between atoms: _492  and  _495
REMARK  206  A    between atoms: _495  and  _496
REMARK  207  A    between atoms: _496  and  _497
REMARK  208  A    between atoms: _497  and  _498
REMARK  209  A    between atoms: _507  and  _509
REMARK  210  A    between atoms: _509  and  _510
REMARK  211  A    between atoms: _509  and  _512
REMARK  212  A    between atoms: _512  and  _513
REMARK                            x       y       z     vdW  Elec       q    Type
REMARK                         _______ _______ _______ _____ _____    ______ ____
ROOT
ATOM      1  O   HOH     1      26.588  -1.665  25.922  0.00  0.00    +0.000 OA
ENDROOT
TORSDOF 0
REMARK  Name = ../refined-set-2016/3fuc/3fuc_pocket.pdb
REMARK  212 active torsions:
REMARK  status: ('A' for Active; 'I' for Inactive)
REMARK    1  A    between atoms: _1  and  _3
REMARK    2  A    between atoms: _3  and  _4
REMARK    3  A    between atoms: _3  and  _6
REMARK    4  A    between atoms: _6  and  _7
REMARK    5  A    between atoms: _10  and  _12
REMARK    6  A    between atoms: _12  and  _13
REMARK    7  A    between atoms: _12  and  _15
REMARK    8  A    between atoms: _17  and  _19
REMARK    9  A    between atoms: _19  and  _20
REMARK   10  A    between atoms: _22  and  _24
REMARK   11  A    between atoms: _24  and  _25
REMARK   12  A    between atoms: _24  and  _27
REMARK   13  A    between atoms: _27  and  _28
REMARK   14  A    between atoms: _30  and  _32
REMARK   15  A    between atoms: _32  and  _33
REMARK   16  A    between atoms: _35  and  _37
REMARK   17  A    between atoms: _37  and  _38
REMARK   18  A    between atoms: _37  and  _40
REMARK   19  A    between atoms: _40  and  _41
REMARK   20  A    between atoms: _44  and  _46
REMARK   21  A    between atoms: _46  and  _47
REMARK   22  A    between atoms: _49  and  _51
REMARK   23  A    between atoms: _51  and  _52
REMARK   24  A    between atoms: _54  and  _56
REMARK   25  A    between atoms: _56  and  _57
REMARK   26  A    between atoms: _56  and  _59
REMARK   27  A    between atoms: _59  and  _60
REMARK   28  A    between atoms: _60  and  _61
REMARK   29  A    between atoms: _61  and  _62
REMARK   30  A    between atoms: _71  and  _73
REMARK   31  A    between atoms: _73  and  _74
REMARK   32  A    between atoms: _73  and  _76
REMARK   33  A    between atoms: _76  and  _77
REMARK   34  A    between atoms: _83  and  _85
REMARK   35  A    between atoms: _85  and  _86
REMARK   36  A    between atoms: _85  and  _88
REMARK   37  A    between atoms: _88  and  _89
REMARK   38  A    between atoms: _94  and  _96
REMARK   39  A    between atoms: _96  and  _97
REMARK   40  A    between atoms: _96  and  _99
REMARK   41  A    between atoms: _99  and  _100
REMARK   42  A    between atoms: _100  and  _101
REMARK   43  A    between atoms: _103  and  _105
REMARK   44  A    between atoms: _105  and  _106
REMARK   45  A    between atoms: _105  and  _108
REMARK   46  A    between atoms: _108  and  _109
REMARK   47  A    between atoms: _114  and  _115
REMARK   48  A    between atoms: _117  and  _119
REMARK   49  A    between atoms: _119  and  _120
REMARK   50  A    between atoms: _119  and  _122
REMARK   51  A    between atoms: _122  and  _123
REMARK   52  A    between atoms: _123  and  _124
REMARK   53  A    between atoms: _127  and  _129
REMARK   54  A    between atoms: _129  and  _130
REMARK   55  A    between atoms: _129  and  _132
REMARK   56  A    between atoms: _132  and  _133
REMARK   57  A    between atoms: _136  and  _138
REMARK   58  A    between atoms: _138  and  _139
REMARK   59  A    between atoms: _138  and  _141
REMARK   60  A    between atoms: _141  and  _142
REMARK   61  A    between atoms: _147  and  _149
REMARK   62  A    between atoms: _149  and  _150
REMARK   63  A    between atoms: _153  and  _155
REMARK   64  A    between atoms: _155  and  _156
REMARK   65  A    between atoms: _159  and  _161
REMARK   66  A    between atoms: _161  and  _162
REMARK   67  A    between atoms: _164  and  _166
REMARK   68  A    between atoms: _166  and  _167
REMARK   69  A    between atoms: _169  and  _171
REMARK   70  A    between atoms: _171  and  _172
REMARK   71  A    between atoms: _171  and  _174
REMARK   72  A    between atoms: _174  and  _175
REMARK   73  A    between atoms: _178  and  _180
REMARK   74  A    between atoms: _180  and  _181
REMARK   75  A    between atoms: _180  and  _183
REMARK   76  A    between atoms: _183  and  _184
REMARK   77  A    between atoms: _189  and  _190
REMARK   78  A    between atoms: _192  and  _194
REMARK   79  A    between atoms: _194  and  _195
REMARK   80  A    between atoms: _194  and  _197
REMARK   81  A    between atoms: _200  and  _202
REMARK   82  A    between atoms: _202  and  _203
REMARK   83  A    between atoms: _202  and  _205
REMARK   84  A    between atoms: _205  and  _206
REMARK   85  A    between atoms: _206  and  _207
REMARK   86  A    between atoms: _209  and  _211
REMARK   87  A    between atoms: _211  and  _212
REMARK   88  A    between atoms: _211  and  _214
REMARK   89  A    between atoms: _214  and  _215
REMARK   90  A    between atoms: _218  and  _220
REMARK   91  A    between atoms: _220  and  _221
REMARK   92  A    between atoms: _223  and  _225
REMARK   93  A    between atoms: _225  and  _226
REMARK   94  A    between atoms: _229  and  _230
REMARK   95  A    between atoms: _235  and  _237
REMARK   96  A    between atoms: _237  and  _238
REMARK   97  A    between atoms: _237  and  _240
REMARK   98  A    between atoms: _240  and  _241
REMARK   99  A    between atoms: _246  and  _248
REMARK  100  A    between atoms: _248  and  _249
REMARK  101  A    between atoms: _248  and  _251
REMARK  102  A    between atoms: _251  and  _252
REMARK  103  A    between atoms: _258  and  _260
REMARK  104  A    between atoms: _260  and  _261
REMARK  105  A    between atoms: _260  and  _263
REMARK  106  A    between atoms: _263  and  _264
REMARK  107  A    between atoms: _264  and  _265
REMARK  108  A    between atoms: _268  and  _270
REMARK  109  A    between atoms: _270  and  _271
REMARK  110  A    between atoms: _270  and  _273
REMARK  111  A    between atoms: _275  and  _277
REMARK  112  A    between atoms: _277  and  _278
REMARK  113  A    between atoms: _277  and  _280
REMARK  114  A    between atoms: _280  and  _281
REMARK  115  A    between atoms: _284  and  _286
REMARK  116  A    between atoms: _286  and  _287
REMARK  117  A    between atoms: _290  and  _292
REMARK  118  A    between atoms: _292  and  _293
REMARK  119  A    between atoms: _292  and  _295
REMARK  120  A    between atoms: _298  and  _300
REMARK  121  A    between atoms: _300  and  _301
REMARK  122  A    between atoms: _303  and  _305
REMARK  123  A    between atoms: _305  and  _306
REMARK  124  A    between atoms: _305  and  _308
REMARK  125  A    between atoms: _308  and  _309
REMARK  126  A    between atoms: _309  and  _310
REMARK  127  A    between atoms: _312  and  _314
REMARK  128  A    between atoms: _314  and  _315
REMARK  129  A    between atoms: _314  and  _317
REMARK  130  A    between atoms: _317  and  _318
REMARK  131  A    between atoms: _320  and  _322
REMARK  132  A    between atoms: _322  and  _323
REMARK  133  A    between atoms: _322  and  _325
REMARK  134  A    between atoms: _325  and  _326
REMARK  135  A    between atoms: _329  and  _331
REMARK  136  A    between atoms: _331  and  _332
REMARK  137  A    between atoms: _331  and  _334
REMARK  138  A    between atoms: _337  and  _339
REMARK  139  A    between atoms: _339  and  _340
REMARK  140  A    between atoms: _339  and  _342
REMARK  141  A    between atoms: _342  and  _343
REMARK  142  A    between atoms: _343  and  _344
REMARK  143  A    between atoms: _347  and  _349
REMARK  144  A    between atoms: _349  and  _350
REMARK  145  A    between atoms: _349  and  _352
REMARK  146  A    between atoms: _352  and  _353
REMARK  147  A    between atoms: _359  and  _361
REMARK  148  A    between atoms: _361  and  _362
REMARK  149  A    between atoms: _361  and  _364
REMARK  150  A    between atoms: _364  and  _365
REMARK  151  A    between atoms: _367  and  _369
REMARK  152  A    between atoms: _369  and  _370
REMARK  153  A    between atoms: _369  and  _372
REMARK  154  A    between atoms: _372  and  _373
REMARK  155  A    between atoms: _376  and  _378
REMARK  156  A    between atoms: _378  and  _379
REMARK  157  A    between atoms: _378  and  _381
REMARK  158  A    between atoms: _381  and  _382
REMARK  159  A    between atoms: _385  and  _387
REMARK  160  A    between atoms: _387  and  _388
REMARK  161  A    between atoms: _387  and  _390
REMARK  162  A    between atoms: _390  and  _391
REMARK  163  A    between atoms: _394  and  _396
REMARK  164  A    between atoms: _396  and  _397
REMARK  165  A    between atoms: _396  and  _399
REMARK  166  A    between atoms: _399  and  _400
REMARK  167  A    between atoms: _405  and  _407
REMARK  168  A    between atoms: _407  and  _408
REMARK  169  A    between atoms: _407  and  _410
REMARK  170  A    between atoms: _410  and  _411
REMARK  171  A    between atoms: _411  and  _412
REMARK  172  A    between atoms: _412  and  _413
REMARK  173  A    between atoms: _413  and  _414
REMARK  174  A    between atoms: _418  and  _420
REMARK  175  A    between atoms: _420  and  _421
REMARK  176  A    between atoms: _420  and  _423
REMARK  177  A    between atoms: _426  and  _428
REMARK  178  A    between atoms: _428  and  _429
REMARK  179  A    between atoms: _428  and  _431
REMARK  180  A    between atoms: _431  and  _432
REMARK  181  A    between atoms: _435  and  _437
REMARK  182  A    between atoms: _437  and  _438
REMARK  183  A    between atoms: _441  and  _443
REMARK  184  A    between atoms: _443  and  _444
REMARK  185  A    between atoms: _443  and  _446
REMARK  186  A    between atoms: _446  and  _447
REMARK  187  A    between atoms: _452  and  _454
REMARK  188  A    between atoms: _454  and  _455
REMARK  189  A    between atoms: _454  and  _457
REMARK  190  A    between atoms: _457  and  _458
REMARK  191  A    between atoms: _463  and  _465
REMARK  192  A    between atoms: _465  and  _466
REMARK  193  A    between atoms: _465  and  _468
REMARK  194  A    between atoms: _468  and  _469
REMARK  195  A    between atoms: _469  and  _470
REMARK  196  A    between atoms: _473  and  _475
REMARK  197  A    between atoms: _475  and  _476
REMARK  198  A    between atoms: _475  and  _478
REMARK  199  A    between atoms: _481  and  _483
REMARK  200  A    between atoms: _483  and  _484
REMARK  201  A    between atoms: _483  and  _486
REMARK  202  A    between atoms: _486  and  _487
REMARK  203  A    between atoms: _490  and  _492
REMARK  204  A    between atoms: _492  and  _493
REMARK  205  A    between atoms: _492  and  _495
REMARK  206  A    between atoms: _495  and  _496
REMARK  207  A    between atoms: _496  and  _497
REMARK  208  A    between atoms: _497  and  _498
REMARK  209  A    between atoms: _507  and  _509
REMARK  210  A    between atoms: _509  and  _510
REMARK  211  A    between atoms: _509  and  _512
REMARK  212  A    between atoms: _512  and  _513
REMARK                            x       y       z     vdW  Elec       q    Type
REMARK                         _______ _______ _______ _____ _____    ______ ____
ROOT
ATOM      1  O   HOH     1      37.135  -4.695  35.015  0.00  0.00    +0.000 OA
ENDROOT
TORSDOF 0
REMARK  Name = ../refined-set-2016/3fuc/3fuc_pocket.pdb
REMARK  212 active torsions:
REMARK  status: ('A' for Active; 'I' for Inactive)
REMARK    1  A    between atoms: _1  and  _3
REMARK    2  A    between atoms: _3  and  _4
REMARK    3  A    between atoms: _3  and  _6
REMARK    4  A    between atoms: _6  and  _7
REMARK    5  A    between atoms: _10  and  _12
REMARK    6  A    between atoms: _12  and  _13
REMARK    7  A    between atoms: _12  and  _15
REMARK    8  A    between atoms: _17  and  _19
REMARK    9  A    between atoms: _19  and  _20
REMARK   10  A    between atoms: _22  and  _24
REMARK   11  A    between atoms: _24  and  _25
REMARK   12  A    between atoms: _24  and  _27
REMARK   13  A    between atoms: _27  and  _28
REMARK   14  A    between atoms: _30  and  _32
REMARK   15  A    between atoms: _32  and  _33
REMARK   16  A    between atoms: _35  and  _37
REMARK   17  A    between atoms: _37  and  _38
REMARK   18  A    between atoms: _37  and  _40
REMARK   19  A    between atoms: _40  and  _41
REMARK   20  A    between atoms: _44  and  _46
REMARK   21  A    between atoms: _46  and  _47
REMARK   22  A    between atoms: _49  and  _51
REMARK   23  A    between atoms: _51  and  _52
REMARK   24  A    between atoms: _54  and  _56
REMARK   25  A    between atoms: _56  and  _57
REMARK   26  A    between atoms: _56  and  _59
REMARK   27  A    between atoms: _59  and  _60
REMARK   28  A    between atoms: _60  and  _61
REMARK   29  A    between atoms: _61  and  _62
REMARK   30  A    between atoms: _71  and  _73
REMARK   31  A    between atoms: _73  and  _74
REMARK   32  A    between atoms: _73  and  _76
REMARK   33  A    between atoms: _76  and  _77
REMARK   34  A    between atoms: _83  and  _85
REMARK   35  A    between atoms: _85  and  _86
REMARK   36  A    between atoms: _85  and  _88
REMARK   37  A    between atoms: _88  and  _89
REMARK   38  A    between atoms: _94  and  _96
REMARK   39  A    between atoms: _96  and  _97
REMARK   40  A    between atoms: _96  and  _99
REMARK   41  A    between atoms: _99  and  _100
REMARK   42  A    between atoms: _100  and  _101
REMARK   43  A    between atoms: _103  and  _105
REMARK   44  A    between atoms: _105  and  _106
REMARK   45  A    between atoms: _105  and  _108
REMARK   46  A    between atoms: _108  and  _109
REMARK   47  A    between atoms: _114  and  _115
REMARK   48  A    between atoms: _117  and  _119
REMARK   49  A    between atoms: _119  and  _120
REMARK   50  A    between atoms: _119  and  _122
REMARK   51  A    between atoms: _122  and  _123
REMARK   52  A    between atoms: _123  and  _124
REMARK   53  A    between atoms: _127  and  _129
REMARK   54  A    between atoms: _129  and  _130
REMARK   55  A    between atoms: _129  and  _132
REMARK   56  A    between atoms: _132  and  _133
REMARK   57  A    between atoms: _136  and  _138
REMARK   58  A    between atoms: _138  and  _139
REMARK   59  A    between atoms: _138  and  _141
REMARK   60  A    between atoms: _141  and  _142
REMARK   61  A    between atoms: _147  and  _149
REMARK   62  A    between atoms: _149  and  _150
REMARK   63  A    between atoms: _153  and  _155
REMARK   64  A    between atoms: _155  and  _156
REMARK   65  A    between atoms: _159  and  _161
REMARK   66  A    between atoms: _161  and  _162
REMARK   67  A    between atoms: _164  and  _166
REMARK   68  A    between atoms: _166  and  _167
REMARK   69  A    between atoms: _169  and  _171
REMARK   70  A    between atoms: _171  and  _172
REMARK   71  A    between atoms: _171  and  _174
REMARK   72  A    between atoms: _174  and  _175
REMARK   73  A    between atoms: _178  and  _180
REMARK   74  A    between atoms: _180  and  _181
REMARK   75  A    between atoms: _180  and  _183
REMARK   76  A    between atoms: _183  and  _184
REMARK   77  A    between atoms: _189  and  _190
REMARK   78  A    between atoms: _192  and  _194
REMARK   79  A    between atoms: _194  and  _195
REMARK   80  A    between atoms: _194  and  _197
REMARK   81  A    between atoms: _200  and  _202
REMARK   82  A    between atoms: _202  and  _203
REMARK   83  A    between atoms: _202  and  _205
REMARK   84  A    between atoms: _205  and  _206
REMARK   85  A    between atoms: _206  and  _207
REMARK   86  A    between atoms: _209  and  _211
REMARK   87  A    between atoms: _211  and  _212
REMARK   88  A    between atoms: _211  and  _214
REMARK   89  A    between atoms: _214  and  _215
REMARK   90  A    between atoms: _218  and  _220
REMARK   91  A    between atoms: _220  and  _221
REMARK   92  A    between atoms: _223  and  _225
REMARK   93  A    between atoms: _225  and  _226
REMARK   94  A    between atoms: _229  and  _230
REMARK   95  A    between atoms: _235  and  _237
REMARK   96  A    between atoms: _237  and  _238
REMARK   97  A    between atoms: _237  and  _240
REMARK   98  A    between atoms: _240  and  _241
REMARK   99  A    between atoms: _246  and  _248
REMARK  100  A    between atoms: _248  and  _249
REMARK  101  A    between atoms: _248  and  _251
REMARK  102  A    between atoms: _251  and  _252
REMARK  103  A    between atoms: _258  and  _260
REMARK  104  A    between atoms: _260  and  _261
REMARK  105  A    between atoms: _260  and  _263
REMARK  106  A    between atoms: _263  and  _264
REMARK  107  A    between atoms: _264  and  _265
REMARK  108  A    between atoms: _268  and  _270
REMARK  109  A    between atoms: _270  and  _271
REMARK  110  A    between atoms: _270  and  _273
REMARK  111  A    between atoms: _275  and  _277
REMARK  112  A    between atoms: _277  and  _278
REMARK  113  A    between atoms: _277  and  _280
REMARK  114  A    between atoms: _280  and  _281
REMARK  115  A    between atoms: _284  and  _286
REMARK  116  A    between atoms: _286  and  _287
REMARK  117  A    between atoms: _290  and  _292
REMARK  118  A    between atoms: _292  and  _293
REMARK  119  A    between atoms: _292  and  _295
REMARK  120  A    between atoms: _298  and  _300
REMARK  121  A    between atoms: _300  and  _301
REMARK  122  A    between atoms: _303  and  _305
REMARK  123  A    between atoms: _305  and  _306
REMARK  124  A    between atoms: _305  and  _308
REMARK  125  A    between atoms: _308  and  _309
REMARK  126  A    between atoms: _309  and  _310
REMARK  127  A    between atoms: _312  and  _314
REMARK  128  A    between atoms: _314  and  _315
REMARK  129  A    between atoms: _314  and  _317
REMARK  130  A    between atoms: _317  and  _318
REMARK  131  A    between atoms: _320  and  _322
REMARK  132  A    between atoms: _322  and  _323
REMARK  133  A    between atoms: _322  and  _325
REMARK  134  A    between atoms: _325  and  _326
REMARK  135  A    between atoms: _329  and  _331
REMARK  136  A    between atoms: _331  and  _332
REMARK  137  A    between atoms: _331  and  _334
REMARK  138  A    between atoms: _337  and  _339
REMARK  139  A    between atoms: _339  and  _340
REMARK  140  A    between atoms: _339  and  _342
REMARK  141  A    between atoms: _342  and  _343
REMARK  142  A    between atoms: _343  and  _344
REMARK  143  A    between atoms: _347  and  _349
REMARK  144  A    between atoms: _349  and  _350
REMARK  145  A    between atoms: _349  and  _352
REMARK  146  A    between atoms: _352  and  _353
REMARK  147  A    between atoms: _359  and  _361
REMARK  148  A    between atoms: _361  and  _362
REMARK  149  A    between atoms: _361  and  _364
REMARK  150  A    between atoms: _364  and  _365
REMARK  151  A    between atoms: _367  and  _369
REMARK  152  A    between atoms: _369  and  _370
REMARK  153  A    between atoms: _369  and  _372
REMARK  154  A    between atoms: _372  and  _373
REMARK  155  A    between atoms: _376  and  _378
REMARK  156  A    between atoms: _378  and  _379
REMARK  157  A    between atoms: _378  and  _381
REMARK  158  A    between atoms: _381  and  _382
REMARK  159  A    between atoms: _385  and  _387
REMARK  160  A    between atoms: _387  and  _388
REMARK  161  A    between atoms: _387  and  _390
REMARK  162  A    between atoms: _390  and  _391
REMARK  163  A    between atoms: _394  and  _396
REMARK  164  A    between atoms: _396  and  _397
REMARK  165  A    between atoms: _396  and  _399
REMARK  166  A    between atoms: _399  and  _400
REMARK  167  A    between atoms: _405  and  _407
REMARK  168  A    between atoms: _407  and  _408
REMARK  169  A    between atoms: _407  and  _410
REMARK  170  A    between atoms: _410  and  _411
REMARK  171  A    between atoms: _411  and  _412
REMARK  172  A    between atoms: _412  and  _413
REMARK  173  A    between atoms: _413  and  _414
REMARK  174  A    between atoms: _418  and  _420
REMARK  175  A    between atoms: _420  and  _421
REMARK  176  A    between atoms: _420  and  _423
REMARK  177  A    between atoms: _426  and  _428
REMARK  178  A    between atoms: _428  and  _429
REMARK  179  A    between atoms: _428  and  _431
REMARK  180  A    between atoms: _431  and  _432
REMARK  181  A    between atoms: _435  and  _437
REMARK  182  A    between atoms: _437  and  _438
REMARK  183  A    between atoms: _441  and  _443
REMARK  184  A    between atoms: _443  and  _444
REMARK  185  A    between atoms: _443  and  _446
REMARK  186  A    between atoms: _446  and  _447
REMARK  187  A    between atoms: _452  and  _454
REMARK  188  A    between atoms: _454  and  _455
REMARK  189  A    between atoms: _454  and  _457
REMARK  190  A    between atoms: _457  and  _458
REMARK  191  A    between atoms: _463  and  _465
REMARK  192  A    between atoms: _465  and  _466
REMARK  193  A    between atoms: _465  and  _468
REMARK  194  A    between atoms: _468  and  _469
REMARK  195  A    between atoms: _469  and  _470
REMARK  196  A    between atoms: _473  and  _475
REMARK  197  A    between atoms: _475  and  _476
REMARK  198  A    between atoms: _475  and  _478
REMARK  199  A    between atoms: _481  and  _483
REMARK  200  A    between atoms: _483  and  _484
REMARK  201  A    between atoms: _483  and  _486
REMARK  202  A    between atoms: _486  and  _487
REMARK  203  A    between atoms: _490  and  _492
REMARK  204  A    between atoms: _492  and  _493
REMARK  205  A    between atoms: _492  and  _495
REMARK  206  A    between atoms: _495  and  _496
REMARK  207  A    between atoms: _496  and  _497
REMARK  208  A    between atoms: _497  and  _498
REMARK  209  A    between atoms: _507  and  _509
REMARK  210  A    between atoms: _509  and  _510
REMARK  211  A    between atoms: _509  and  _512
REMARK  212  A    between atoms: _512  and  _513
REMARK                            x       y       z     vdW  Elec       q    Type
REMARK                         _______ _______ _______ _____ _____    ______ ____
ROOT
ATOM      1  O   HOH     1      25.181 -13.599  20.789  0.00  0.00    +0.000 OA
ENDROOT
TORSDOF 0
REMARK  Name = ../refined-set-2016/3fuc/3fuc_pocket.pdb
REMARK  212 active torsions:
REMARK  status: ('A' for Active; 'I' for Inactive)
REMARK    1  A    between atoms: _1  and  _3
REMARK    2  A    between atoms: _3  and  _4
REMARK    3  A    between atoms: _3  and  _6
REMARK    4  A    between atoms: _6  and  _7
REMARK    5  A    between atoms: _10  and  _12
REMARK    6  A    between atoms: _12  and  _13
REMARK    7  A    between atoms: _12  and  _15
REMARK    8  A    between atoms: _17  and  _19
REMARK    9  A    between atoms: _19  and  _20
REMARK   10  A    between atoms: _22  and  _24
REMARK   11  A    between atoms: _24  and  _25
REMARK   12  A    between atoms: _24  and  _27
REMARK   13  A    between atoms: _27  and  _28
REMARK   14  A    between atoms: _30  and  _32
REMARK   15  A    between atoms: _32  and  _33
REMARK   16  A    between atoms: _35  and  _37
REMARK   17  A    between atoms: _37  and  _38
REMARK   18  A    between atoms: _37  and  _40
REMARK   19  A    between atoms: _40  and  _41
REMARK   20  A    between atoms: _44  and  _46
REMARK   21  A    between atoms: _46  and  _47
REMARK   22  A    between atoms: _49  and  _51
REMARK   23  A    between atoms: _51  and  _52
REMARK   24  A    between atoms: _54  and  _56
REMARK   25  A    between atoms: _56  and  _57
REMARK   26  A    between atoms: _56  and  _59
REMARK   27  A    between atoms: _59  and  _60
REMARK   28  A    between atoms: _60  and  _61
REMARK   29  A    between atoms: _61  and  _62
REMARK   30  A    between atoms: _71  and  _73
REMARK   31  A    between atoms: _73  and  _74
REMARK   32  A    between atoms: _73  and  _76
REMARK   33  A    between atoms: _76  and  _77
REMARK   34  A    between atoms: _83  and  _85
REMARK   35  A    between atoms: _85  and  _86
REMARK   36  A    between atoms: _85  and  _88
REMARK   37  A    between atoms: _88  and  _89
REMARK   38  A    between atoms: _94  and  _96
REMARK   39  A    between atoms: _96  and  _97
REMARK   40  A    between atoms: _96  and  _99
REMARK   41  A    between atoms: _99  and  _100
REMARK   42  A    between atoms: _100  and  _101
REMARK   43  A    between atoms: _103  and  _105
REMARK   44  A    between atoms: _105  and  _106
REMARK   45  A    between atoms: _105  and  _108
REMARK   46  A    between atoms: _108  and  _109
REMARK   47  A    between atoms: _114  and  _115
REMARK   48  A    between atoms: _117  and  _119
REMARK   49  A    between atoms: _119  and  _120
REMARK   50  A    between atoms: _119  and  _122
REMARK   51  A    between atoms: _122  and  _123
REMARK   52  A    between atoms: _123  and  _124
REMARK   53  A    between atoms: _127  and  _129
REMARK   54  A    between atoms: _129  and  _130
REMARK   55  A    between atoms: _129  and  _132
REMARK   56  A    between atoms: _132  and  _133
REMARK   57  A    between atoms: _136  and  _138
REMARK   58  A    between atoms: _138  and  _139
REMARK   59  A    between atoms: _138  and  _141
REMARK   60  A    between atoms: _141  and  _142
REMARK   61  A    between atoms: _147  and  _149
REMARK   62  A    between atoms: _149  and  _150
REMARK   63  A    between atoms: _153  and  _155
REMARK   64  A    between atoms: _155  and  _156
REMARK   65  A    between atoms: _159  and  _161
REMARK   66  A    between atoms: _161  and  _162
REMARK   67  A    between atoms: _164  and  _166
REMARK   68  A    between atoms: _166  and  _167
REMARK   69  A    between atoms: _169  and  _171
REMARK   70  A    between atoms: _171  and  _172
REMARK   71  A    between atoms: _171  and  _174
REMARK   72  A    between atoms: _174  and  _175
REMARK   73  A    between atoms: _178  and  _180
REMARK   74  A    between atoms: _180  and  _181
REMARK   75  A    between atoms: _180  and  _183
REMARK   76  A    between atoms: _183  and  _184
REMARK   77  A    between atoms: _189  and  _190
REMARK   78  A    between atoms: _192  and  _194
REMARK   79  A    between atoms: _194  and  _195
REMARK   80  A    between atoms: _194  and  _197
REMARK   81  A    between atoms: _200  and  _202
REMARK   82  A    between atoms: _202  and  _203
REMARK   83  A    between atoms: _202  and  _205
REMARK   84  A    between atoms: _205  and  _206
REMARK   85  A    between atoms: _206  and  _207
REMARK   86  A    between atoms: _209  and  _211
REMARK   87  A    between atoms: _211  and  _212
REMARK   88  A    between atoms: _211  and  _214
REMARK   89  A    between atoms: _214  and  _215
REMARK   90  A    between atoms: _218  and  _220
REMARK   91  A    between atoms: _220  and  _221
REMARK   92  A    between atoms: _223  and  _225
REMARK   93  A    between atoms: _225  and  _226
REMARK   94  A    between atoms: _229  and  _230
REMARK   95  A    between atoms: _235  and  _237
REMARK   96  A    between atoms: _237  and  _238
REMARK   97  A    between atoms: _237  and  _240
REMARK   98  A    between atoms: _240  and  _241
REMARK   99  A    between atoms: _246  and  _248
REMARK  100  A    between atoms: _248  and  _249
REMARK  101  A    between atoms: _248  and  _251
REMARK  102  A    between atoms: _251  and  _252
REMARK  103  A    between atoms: _258  and  _260
REMARK  104  A    between atoms: _260  and  _261
REMARK  105  A    between atoms: _260  and  _263
REMARK  106  A    between atoms: _263  and  _264
REMARK  107  A    between atoms: _264  and  _265
REMARK  108  A    between atoms: _268  and  _270
REMARK  109  A    between atoms: _270  and  _271
REMARK  110  A    between atoms: _270  and  _273
REMARK  111  A    between atoms: _275  and  _277
REMARK  112  A    between atoms: _277  and  _278
REMARK  113  A    between atoms: _277  and  _280
REMARK  114  A    between atoms: _280  and  _281
REMARK  115  A    between atoms: _284  and  _286
REMARK  116  A    between atoms: _286  and  _287
REMARK  117  A    between atoms: _290  and  _292
REMARK  118  A    between atoms: _292  and  _293
REMARK  119  A    between atoms: _292  and  _295
REMARK  120  A    between atoms: _298  and  _300
REMARK  121  A    between atoms: _300  and  _301
REMARK  122  A    between atoms: _303  and  _305
REMARK  123  A    between atoms: _305  and  _306
REMARK  124  A    between atoms: _305  and  _308
REMARK  125  A    between atoms: _308  and  _309
REMARK  126  A    between atoms: _309  and  _310
REMARK  127  A    between atoms: _312  and  _314
REMARK  128  A    between atoms: _314  and  _315
REMARK  129  A    between atoms: _314  and  _317
REMARK  130  A    between atoms: _317  and  _318
REMARK  131  A    between atoms: _320  and  _322
REMARK  132  A    between atoms: _322  and  _323
REMARK  133  A    between atoms: _322  and  _325
REMARK  134  A    between atoms: _325  and  _326
REMARK  135  A    between atoms: _329  and  _331
REMARK  136  A    between atoms: _331  and  _332
REMARK  137  A    between atoms: _331  and  _334
REMARK  138  A    between atoms: _337  and  _339
REMARK  139  A    between atoms: _339  and  _340
REMARK  140  A    between atoms: _339  and  _342
REMARK  141  A    between atoms: _342  and  _343
REMARK  142  A    between atoms: _343  and  _344
REMARK  143  A    between atoms: _347  and  _349
REMARK  144  A    between atoms: _349  and  _350
REMARK  145  A    between atoms: _349  and  _352
REMARK  146  A    between atoms: _352  and  _353
REMARK  147  A    between atoms: _359  and  _361
REMARK  148  A    between atoms: _361  and  _362
REMARK  149  A    between atoms: _361  and  _364
REMARK  150  A    between atoms: _364  and  _365
REMARK  151  A    between atoms: _367  and  _369
REMARK  152  A    between atoms: _369  and  _370
REMARK  153  A    between atoms: _369  and  _372
REMARK  154  A    between atoms: _372  and  _373
REMARK  155  A    between atoms: _376  and  _378
REMARK  156  A    between atoms: _378  and  _379
REMARK  157  A    between atoms: _378  and  _381
REMARK  158  A    between atoms: _381  and  _382
REMARK  159  A    between atoms: _385  and  _387
REMARK  160  A    between atoms: _387  and  _388
REMARK  161  A    between atoms: _387  and  _390
REMARK  162  A    between atoms: _390  and  _391
REMARK  163  A    between atoms: _394  and  _396
REMARK  164  A    between atoms: _396  and  _397
REMARK  165  A    between atoms: _396  and  _399
REMARK  166  A    between atoms: _399  and  _400
REMARK  167  A    between atoms: _405  and  _407
REMARK  168  A    between atoms: _407  and  _408
REMARK  169  A    between atoms: _407  and  _410
REMARK  170  A    between atoms: _410  and  _411
REMARK  171  A    between atoms: _411  and  _412
REMARK  172  A    between atoms: _412  and  _413
REMARK  173  A    between atoms: _413  and  _414
REMARK  174  A    between atoms: _418  and  _420
REMARK  175  A    between atoms: _420  and  _421
REMARK  176  A    between atoms: _420  and  _423
REMARK  177  A    between atoms: _426  and  _428
REMARK  178  A    between atoms: _428  and  _429
REMARK  179  A    between atoms: _428  and  _431
REMARK  180  A    between atoms: _431  and  _432
REMARK  181  A    between atoms: _435  and  _437
REMARK  182  A    between atoms: _437  and  _438
REMARK  183  A    between atoms: _441  and  _443
REMARK  184  A    between atoms: _443  and  _444
REMARK  185  A    between atoms: _443  and  _446
REMARK  186  A    between atoms: _446  and  _447
REMARK  187  A    between atoms: _452  and  _454
REMARK  188  A    between atoms: _454  and  _455
REMARK  189  A    between atoms: _454  and  _457
REMARK  190  A    between atoms: _457  and  _458
REMARK  191  A    between atoms: _463  and  _465
REMARK  192  A    between atoms: _465  and  _466
REMARK  193  A    between atoms: _465  and  _468
REMARK  194  A    between atoms: _468  and  _469
REMARK  195  A    between atoms: _469  and  _470
REMARK  196  A    between atoms: _473  and  _475
REMARK  197  A    between atoms: _475  and  _476
REMARK  198  A    between atoms: _475  and  _478
REMARK  199  A    between atoms: _481  and  _483
REMARK  200  A    between atoms: _483  and  _484
REMARK  201  A    between atoms: _483  and  _486
REMARK  202  A    between atoms: _486  and  _487
REMARK  203  A    between atoms: _490  and  _492
REMARK  204  A    between atoms: _492  and  _493
REMARK  205  A    between atoms: _492  and  _495
REMARK  206  A    between atoms: _495  and  _496
REMARK  207  A    between atoms: _496  and  _497
REMARK  208  A    between atoms: _497  and  _498
REMARK  209  A    between atoms: _507  and  _509
REMARK  210  A    between atoms: _509  and  _510
REMARK  211  A    between atoms: _509  and  _512
REMARK  212  A    between atoms: _512  and  _513
REMARK                            x       y       z     vdW  Elec       q    Type
REMARK                         _______ _______ _______ _____ _____    ______ ____
ROOT
ATOM      1  O   HOH     1      32.843 -19.427  28.286  0.00  0.00    +0.000 OA
ENDROOT
TORSDOF 0
REMARK  Name = ../refined-set-2016/3fuc/3fuc_pocket.pdb
REMARK  212 active torsions:
REMARK  status: ('A' for Active; 'I' for Inactive)
REMARK    1  A    between atoms: _1  and  _3
REMARK    2  A    between atoms: _3  and  _4
REMARK    3  A    between atoms: _3  and  _6
REMARK    4  A    between atoms: _6  and  _7
REMARK    5  A    between atoms: _10  and  _12
REMARK    6  A    between atoms: _12  and  _13
REMARK    7  A    between atoms: _12  and  _15
REMARK    8  A    between atoms: _17  and  _19
REMARK    9  A    between atoms: _19  and  _20
REMARK   10  A    between atoms: _22  and  _24
REMARK   11  A    between atoms: _24  and  _25
REMARK   12  A    between atoms: _24  and  _27
REMARK   13  A    between atoms: _27  and  _28
REMARK   14  A    between atoms: _30  and  _32
REMARK   15  A    between atoms: _32  and  _33
REMARK   16  A    between atoms: _35  and  _37
REMARK   17  A    between atoms: _37  and  _38
REMARK   18  A    between atoms: _37  and  _40
REMARK   19  A    between atoms: _40  and  _41
REMARK   20  A    between atoms: _44  and  _46
REMARK   21  A    between atoms: _46  and  _47
REMARK   22  A    between atoms: _49  and  _51
REMARK   23  A    between atoms: _51  and  _52
REMARK   24  A    between atoms: _54  and  _56
REMARK   25  A    between atoms: _56  and  _57
REMARK   26  A    between atoms: _56  and  _59
REMARK   27  A    between atoms: _59  and  _60
REMARK   28  A    between atoms: _60  and  _61
REMARK   29  A    between atoms: _61  and  _62
REMARK   30  A    between atoms: _71  and  _73
REMARK   31  A    between atoms: _73  and  _74
REMARK   32  A    between atoms: _73  and  _76
REMARK   33  A    between atoms: _76  and  _77
REMARK   34  A    between atoms: _83  and  _85
REMARK   35  A    between atoms: _85  and  _86
REMARK   36  A    between atoms: _85  and  _88
REMARK   37  A    between atoms: _88  and  _89
REMARK   38  A    between atoms: _94  and  _96
REMARK   39  A    between atoms: _96  and  _97
REMARK   40  A    between atoms: _96  and  _99
REMARK   41  A    between atoms: _99  and  _100
REMARK   42  A    between atoms: _100  and  _101
REMARK   43  A    between atoms: _103  and  _105
REMARK   44  A    between atoms: _105  and  _106
REMARK   45  A    between atoms: _105  and  _108
REMARK   46  A    between atoms: _108  and  _109
REMARK   47  A    between atoms: _114  and  _115
REMARK   48  A    between atoms: _117  and  _119
REMARK   49  A    between atoms: _119  and  _120
REMARK   50  A    between atoms: _119  and  _122
REMARK   51  A    between atoms: _122  and  _123
REMARK   52  A    between atoms: _123  and  _124
REMARK   53  A    between atoms: _127  and  _129
REMARK   54  A    between atoms: _129  and  _130
REMARK   55  A    between atoms: _129  and  _132
REMARK   56  A    between atoms: _132  and  _133
REMARK   57  A    between atoms: _136  and  _138
REMARK   58  A    between atoms: _138  and  _139
REMARK   59  A    between atoms: _138  and  _141
REMARK   60  A    between atoms: _141  and  _142
REMARK   61  A    between atoms: _147  and  _149
REMARK   62  A    between atoms: _149  and  _150
REMARK   63  A    between atoms: _153  and  _155
REMARK   64  A    between atoms: _155  and  _156
REMARK   65  A    between atoms: _159  and  _161
REMARK   66  A    between atoms: _161  and  _162
REMARK   67  A    between atoms: _164  and  _166
REMARK   68  A    between atoms: _166  and  _167
REMARK   69  A    between atoms: _169  and  _171
REMARK   70  A    between atoms: _171  and  _172
REMARK   71  A    between atoms: _171  and  _174
REMARK   72  A    between atoms: _174  and  _175
REMARK   73  A    between atoms: _178  and  _180
REMARK   74  A    between atoms: _180  and  _181
REMARK   75  A    between atoms: _180  and  _183
REMARK   76  A    between atoms: _183  and  _184
REMARK   77  A    between atoms: _189  and  _190
REMARK   78  A    between atoms: _192  and  _194
REMARK   79  A    between atoms: _194  and  _195
REMARK   80  A    between atoms: _194  and  _197
REMARK   81  A    between atoms: _200  and  _202
REMARK   82  A    between atoms: _202  and  _203
REMARK   83  A    between atoms: _202  and  _205
REMARK   84  A    between atoms: _205  and  _206
REMARK   85  A    between atoms: _206  and  _207
REMARK   86  A    between atoms: _209  and  _211
REMARK   87  A    between atoms: _211  and  _212
REMARK   88  A    between atoms: _211  and  _214
REMARK   89  A    between atoms: _214  and  _215
REMARK   90  A    between atoms: _218  and  _220
REMARK   91  A    between atoms: _220  and  _221
REMARK   92  A    between atoms: _223  and  _225
REMARK   93  A    between atoms: _225  and  _226
REMARK   94  A    between atoms: _229  and  _230
REMARK   95  A    between atoms: _235  and  _237
REMARK   96  A    between atoms: _237  and  _238
REMARK   97  A    between atoms: _237  and  _240
REMARK   98  A    between atoms: _240  and  _241
REMARK   99  A    between atoms: _246  and  _248
REMARK  100  A    between atoms: _248  and  _249
REMARK  101  A    between atoms: _248  and  _251
REMARK  102  A    between atoms: _251  and  _252
REMARK  103  A    between atoms: _258  and  _260
REMARK  104  A    between atoms: _260  and  _261
REMARK  105  A    between atoms: _260  and  _263
REMARK  106  A    between atoms: _263  and  _264
REMARK  107  A    between atoms: _264  and  _265
REMARK  108  A    between atoms: _268  and  _270
REMARK  109  A    between atoms: _270  and  _271
REMARK  110  A    between atoms: _270  and  _273
REMARK  111  A    between atoms: _275  and  _277
REMARK  112  A    between atoms: _277  and  _278
REMARK  113  A    between atoms: _277  and  _280
REMARK  114  A    between atoms: _280  and  _281
REMARK  115  A    between atoms: _284  and  _286
REMARK  116  A    between atoms: _286  and  _287
REMARK  117  A    between atoms: _290  and  _292
REMARK  118  A    between atoms: _292  and  _293
REMARK  119  A    between atoms: _292  and  _295
REMARK  120  A    between atoms: _298  and  _300
REMARK  121  A    between atoms: _300  and  _301
REMARK  122  A    between atoms: _303  and  _305
REMARK  123  A    between atoms: _305  and  _306
REMARK  124  A    between atoms: _305  and  _308
REMARK  125  A    between atoms: _308  and  _309
REMARK  126  A    between atoms: _309  and  _310
REMARK  127  A    between atoms: _312  and  _314
REMARK  128  A    between atoms: _314  and  _315
REMARK  129  A    between atoms: _314  and  _317
REMARK  130  A    between atoms: _317  and  _318
REMARK  131  A    between atoms: _320  and  _322
REMARK  132  A    between atoms: _322  and  _323
REMARK  133  A    between atoms: _322  and  _325
REMARK  134  A    between atoms: _325  and  _326
REMARK  135  A    between atoms: _329  and  _331
REMARK  136  A    between atoms: _331  and  _332
REMARK  137  A    between atoms: _331  and  _334
REMARK  138  A    between atoms: _337  and  _339
REMARK  139  A    between atoms: _339  and  _340
REMARK  140  A    between atoms: _339  and  _342
REMARK  141  A    between atoms: _342  and  _343
REMARK  142  A    between atoms: _343  and  _344
REMARK  143  A    between atoms: _347  and  _349
REMARK  144  A    between atoms: _349  and  _350
REMARK  145  A    between atoms: _349  and  _352
REMARK  146  A    between atoms: _352  and  _353
REMARK  147  A    between atoms: _359  and  _361
REMARK  148  A    between atoms: _361  and  _362
REMARK  149  A    between atoms: _361  and  _364
REMARK  150  A    between atoms: _364  and  _365
REMARK  151  A    between atoms: _367  and  _369
REMARK  152  A    between atoms: _369  and  _370
REMARK  153  A    between atoms: _369  and  _372
REMARK  154  A    between atoms: _372  and  _373
REMARK  155  A    between atoms: _376  and  _378
REMARK  156  A    between atoms: _378  and  _379
REMARK  157  A    between atoms: _378  and  _381
REMARK  158  A    between atoms: _381  and  _382
REMARK  159  A    between atoms: _385  and  _387
REMARK  160  A    between atoms: _387  and  _388
REMARK  161  A    between atoms: _387  and  _390
REMARK  162  A    between atoms: _390  and  _391
REMARK  163  A    between atoms: _394  and  _396
REMARK  164  A    between atoms: _396  and  _397
REMARK  165  A    between atoms: _396  and  _399
REMARK  166  A    between atoms: _399  and  _400
REMARK  167  A    between atoms: _405  and  _407
REMARK  168  A    between atoms: _407  and  _408
REMARK  169  A    between atoms: _407  and  _410
REMARK  170  A    between atoms: _410  and  _411
REMARK  171  A    between atoms: _411  and  _412
REMARK  172  A    between atoms: _412  and  _413
REMARK  173  A    between atoms: _413  and  _414
REMARK  174  A    between atoms: _418  and  _420
REMARK  175  A    between atoms: _420  and  _421
REMARK  176  A    between atoms: _420  and  _423
REMARK  177  A    between atoms: _426  and  _428
REMARK  178  A    between atoms: _428  and  _429
REMARK  179  A    between atoms: _428  and  _431
REMARK  180  A    between atoms: _431  and  _432
REMARK  181  A    between atoms: _435  and  _437
REMARK  182  A    between atoms: _437  and  _438
REMARK  183  A    between atoms: _441  and  _443
REMARK  184  A    between atoms: _443  and  _444
REMARK  185  A    between atoms: _443  and  _446
REMARK  186  A    between atoms: _446  and  _447
REMARK  187  A    between atoms: _452  and  _454
REMARK  188  A    between atoms: _454  and  _455
REMARK  189  A    between atoms: _454  and  _457
REMARK  190  A    between atoms: _457  and  _458
REMARK  191  A    between atoms: _463  and  _465
REMARK  192  A    between atoms: _465  and  _466
REMARK  193  A    between atoms: _465  and  _468
REMARK  194  A    between atoms: _468  and  _469
REMARK  195  A    between atoms: _469  and  _470
REMARK  196  A    between atoms: _473  and  _475
REMARK  197  A    between atoms: _475  and  _476
REMARK  198  A    between atoms: _475  and  _478
REMARK  199  A    between atoms: _481  and  _483
REMARK  200  A    between atoms: _483  and  _484
REMARK  201  A    between atoms: _483  and  _486
REMARK  202  A    between atoms: _486  and  _487
REMARK  203  A    between atoms: _490  and  _492
REMARK  204  A    between atoms: _492  and  _493
REMARK  205  A    between atoms: _492  and  _495
REMARK  206  A    between atoms: _495  and  _496
REMARK  207  A    between atoms: _496  and  _497
REMARK  208  A    between atoms: _497  and  _498
REMARK  209  A    between atoms: _507  and  _509
REMARK  210  A    between atoms: _509  and  _510
REMARK  211  A    between atoms: _509  and  _512
REMARK  212  A    between atoms: _512  and  _513
REMARK                            x       y       z     vdW  Elec       q    Type
REMARK                         _______ _______ _______ _____ _____    ______ ____
ROOT
ATOM      1  O   HOH     1      32.988 -15.711  18.796  0.00  0.00    +0.000 OA
ENDROOT
TORSDOF 0
REMARK  Name = ../refined-set-2016/3fuc/3fuc_pocket.pdb
REMARK  212 active torsions:
REMARK  status: ('A' for Active; 'I' for Inactive)
REMARK    1  A    between atoms: _1  and  _3
REMARK    2  A    between atoms: _3  and  _4
REMARK    3  A    between atoms: _3  and  _6
REMARK    4  A    between atoms: _6  and  _7
REMARK    5  A    between atoms: _10  and  _12
REMARK    6  A    between atoms: _12  and  _13
REMARK    7  A    between atoms: _12  and  _15
REMARK    8  A    between atoms: _17  and  _19
REMARK    9  A    between atoms: _19  and  _20
REMARK   10  A    between atoms: _22  and  _24
REMARK   11  A    between atoms: _24  and  _25
REMARK   12  A    between atoms: _24  and  _27
REMARK   13  A    between atoms: _27  and  _28
REMARK   14  A    between atoms: _30  and  _32
REMARK   15  A    between atoms: _32  and  _33
REMARK   16  A    between atoms: _35  and  _37
REMARK   17  A    between atoms: _37  and  _38
REMARK   18  A    between atoms: _37  and  _40
REMARK   19  A    between atoms: _40  and  _41
REMARK   20  A    between atoms: _44  and  _46
REMARK   21  A    between atoms: _46  and  _47
REMARK   22  A    between atoms: _49  and  _51
REMARK   23  A    between atoms: _51  and  _52
REMARK   24  A    between atoms: _54  and  _56
REMARK   25  A    between atoms: _56  and  _57
REMARK   26  A    between atoms: _56  and  _59
REMARK   27  A    between atoms: _59  and  _60
REMARK   28  A    between atoms: _60  and  _61
REMARK   29  A    between atoms: _61  and  _62
REMARK   30  A    between atoms: _71  and  _73
REMARK   31  A    between atoms: _73  and  _74
REMARK   32  A    between atoms: _73  and  _76
REMARK   33  A    between atoms: _76  and  _77
REMARK   34  A    between atoms: _83  and  _85
REMARK   35  A    between atoms: _85  and  _86
REMARK   36  A    between atoms: _85  and  _88
REMARK   37  A    between atoms: _88  and  _89
REMARK   38  A    between atoms: _94  and  _96
REMARK   39  A    between atoms: _96  and  _97
REMARK   40  A    between atoms: _96  and  _99
REMARK   41  A    between atoms: _99  and  _100
REMARK   42  A    between atoms: _100  and  _101
REMARK   43  A    between atoms: _103  and  _105
REMARK   44  A    between atoms: _105  and  _106
REMARK   45  A    between atoms: _105  and  _108
REMARK   46  A    between atoms: _108  and  _109
REMARK   47  A    between atoms: _114  and  _115
REMARK   48  A    between atoms: _117  and  _119
REMARK   49  A    between atoms: _119  and  _120
REMARK   50  A    between atoms: _119  and  _122
REMARK   51  A    between atoms: _122  and  _123
REMARK   52  A    between atoms: _123  and  _124
REMARK   53  A    between atoms: _127  and  _129
REMARK   54  A    between atoms: _129  and  _130
REMARK   55  A    between atoms: _129  and  _132
REMARK   56  A    between atoms: _132  and  _133
REMARK   57  A    between atoms: _136  and  _138
REMARK   58  A    between atoms: _138  and  _139
REMARK   59  A    between atoms: _138  and  _141
REMARK   60  A    between atoms: _141  and  _142
REMARK   61  A    between atoms: _147  and  _149
REMARK   62  A    between atoms: _149  and  _150
REMARK   63  A    between atoms: _153  and  _155
REMARK   64  A    between atoms: _155  and  _156
REMARK   65  A    between atoms: _159  and  _161
REMARK   66  A    between atoms: _161  and  _162
REMARK   67  A    between atoms: _164  and  _166
REMARK   68  A    between atoms: _166  and  _167
REMARK   69  A    between atoms: _169  and  _171
REMARK   70  A    between atoms: _171  and  _172
REMARK   71  A    between atoms: _171  and  _174
REMARK   72  A    between atoms: _174  and  _175
REMARK   73  A    between atoms: _178  and  _180
REMARK   74  A    between atoms: _180  and  _181
REMARK   75  A    between atoms: _180  and  _183
REMARK   76  A    between atoms: _183  and  _184
REMARK   77  A    between atoms: _189  and  _190
REMARK   78  A    between atoms: _192  and  _194
REMARK   79  A    between atoms: _194  and  _195
REMARK   80  A    between atoms: _194  and  _197
REMARK   81  A    between atoms: _200  and  _202
REMARK   82  A    between atoms: _202  and  _203
REMARK   83  A    between atoms: _202  and  _205
REMARK   84  A    between atoms: _205  and  _206
REMARK   85  A    between atoms: _206  and  _207
REMARK   86  A    between atoms: _209  and  _211
REMARK   87  A    between atoms: _211  and  _212
REMARK   88  A    between atoms: _211  and  _214
REMARK   89  A    between atoms: _214  and  _215
REMARK   90  A    between atoms: _218  and  _220
REMARK   91  A    between atoms: _220  and  _221
REMARK   92  A    between atoms: _223  and  _225
REMARK   93  A    between atoms: _225  and  _226
REMARK   94  A    between atoms: _229  and  _230
REMARK   95  A    between atoms: _235  and  _237
REMARK   96  A    between atoms: _237  and  _238
REMARK   97  A    between atoms: _237  and  _240
REMARK   98  A    between atoms: _240  and  _241
REMARK   99  A    between atoms: _246  and  _248
REMARK  100  A    between atoms: _248  and  _249
REMARK  101  A    between atoms: _248  and  _251
REMARK  102  A    between atoms: _251  and  _252
REMARK  103  A    between atoms: _258  and  _260
REMARK  104  A    between atoms: _260  and  _261
REMARK  105  A    between atoms: _260  and  _263
REMARK  106  A    between atoms: _263  and  _264
REMARK  107  A    between atoms: _264  and  _265
REMARK  108  A    between atoms: _268  and  _270
REMARK  109  A    between atoms: _270  and  _271
REMARK  110  A    between atoms: _270  and  _273
REMARK  111  A    between atoms: _275  and  _277
REMARK  112  A    between atoms: _277  and  _278
REMARK  113  A    between atoms: _277  and  _280
REMARK  114  A    between atoms: _280  and  _281
REMARK  115  A    between atoms: _284  and  _286
REMARK  116  A    between atoms: _286  and  _287
REMARK  117  A    between atoms: _290  and  _292
REMARK  118  A    between atoms: _292  and  _293
REMARK  119  A    between atoms: _292  and  _295
REMARK  120  A    between atoms: _298  and  _300
REMARK  121  A    between atoms: _300  and  _301
REMARK  122  A    between atoms: _303  and  _305
REMARK  123  A    between atoms: _305  and  _306
REMARK  124  A    between atoms: _305  and  _308
REMARK  125  A    between atoms: _308  and  _309
REMARK  126  A    between atoms: _309  and  _310
REMARK  127  A    between atoms: _312  and  _314
REMARK  128  A    between atoms: _314  and  _315
REMARK  129  A    between atoms: _314  and  _317
REMARK  130  A    between atoms: _317  and  _318
REMARK  131  A    between atoms: _320  and  _322
REMARK  132  A    between atoms: _322  and  _323
REMARK  133  A    between atoms: _322  and  _325
REMARK  134  A    between atoms: _325  and  _326
REMARK  135  A    between atoms: _329  and  _331
REMARK  136  A    between atoms: _331  and  _332
REMARK  137  A    between atoms: _331  and  _334
REMARK  138  A    between atoms: _337  and  _339
REMARK  139  A    between atoms: _339  and  _340
REMARK  140  A    between atoms: _339  and  _342
REMARK  141  A    between atoms: _342  and  _343
REMARK  142  A    between atoms: _343  and  _344
REMARK  143  A    between atoms: _347  and  _349
REMARK  144  A    between atoms: _349  and  _350
REMARK  145  A    between atoms: _349  and  _352
REMARK  146  A    between atoms: _352  and  _353
REMARK  147  A    between atoms: _359  and  _361
REMARK  148  A    between atoms: _361  and  _362
REMARK  149  A    between atoms: _361  and  _364
REMARK  150  A    between atoms: _364  and  _365
REMARK  151  A    between atoms: _367  and  _369
REMARK  152  A    between atoms: _369  and  _370
REMARK  153  A    between atoms: _369  and  _372
REMARK  154  A    between atoms: _372  and  _373
REMARK  155  A    between atoms: _376  and  _378
REMARK  156  A    between atoms: _378  and  _379
REMARK  157  A    between atoms: _378  and  _381
REMARK  158  A    between atoms: _381  and  _382
REMARK  159  A    between atoms: _385  and  _387
REMARK  160  A    between atoms: _387  and  _388
REMARK  161  A    between atoms: _387  and  _390
REMARK  162  A    between atoms: _390  and  _391
REMARK  163  A    between atoms: _394  and  _396
REMARK  164  A    between atoms: _396  and  _397
REMARK  165  A    between atoms: _396  and  _399
REMARK  166  A    between atoms: _399  and  _400
REMARK  167  A    between atoms: _405  and  _407
REMARK  168  A    between atoms: _407  and  _408
REMARK  169  A    between atoms: _407  and  _410
REMARK  170  A    between atoms: _410  and  _411
REMARK  171  A    between atoms: _411  and  _412
REMARK  172  A    between atoms: _412  and  _413
REMARK  173  A    between atoms: _413  and  _414
REMARK  174  A    between atoms: _418  and  _420
REMARK  175  A    between atoms: _420  and  _421
REMARK  176  A    between atoms: _420  and  _423
REMARK  177  A    between atoms: _426  and  _428
REMARK  178  A    between atoms: _428  and  _429
REMARK  179  A    between atoms: _428  and  _431
REMARK  180  A    between atoms: _431  and  _432
REMARK  181  A    between atoms: _435  and  _437
REMARK  182  A    between atoms: _437  and  _438
REMARK  183  A    between atoms: _441  and  _443
REMARK  184  A    between atoms: _443  and  _444
REMARK  185  A    between atoms: _443  and  _446
REMARK  186  A    between atoms: _446  and  _447
REMARK  187  A    between atoms: _452  and  _454
REMARK  188  A    between atoms: _454  and  _455
REMARK  189  A    between atoms: _454  and  _457
REMARK  190  A    between atoms: _457  and  _458
REMARK  191  A    between atoms: _463  and  _465
REMARK  192  A    between atoms: _465  and  _466
REMARK  193  A    between atoms: _465  and  _468
REMARK  194  A    between atoms: _468  and  _469
REMARK  195  A    between atoms: _469  and  _470
REMARK  196  A    between atoms: _473  and  _475
REMARK  197  A    between atoms: _475  and  _476
REMARK  198  A    between atoms: _475  and  _478
REMARK  199  A    between atoms: _481  and  _483
REMARK  200  A    between atoms: _483  and  _484
REMARK  201  A    between atoms: _483  and  _486
REMARK  202  A    between atoms: _486  and  _487
REMARK  203  A    between atoms: _490  and  _492
REMARK  204  A    between atoms: _492  and  _493
REMARK  205  A    between atoms: _492  and  _495
REMARK  206  A    between atoms: _495  and  _496
REMARK  207  A    between atoms: _496  and  _497
REMARK  208  A    between atoms: _497  and  _498
REMARK  209  A    between atoms: _507  and  _509
REMARK  210  A    between atoms: _509  and  _510
REMARK  211  A    between atoms: _509  and  _512
REMARK  212  A    between atoms: _512  and  _513
REMARK                            x       y       z     vdW  Elec       q    Type
REMARK                         _______ _______ _______ _____ _____    ______ ____
ROOT
ATOM      1  O   HOH     1      39.948  -4.932  35.196  0.00  0.00    +0.000 OA
ENDROOT
TORSDOF 0
REMARK  Name = ../refined-set-2016/3fuc/3fuc_pocket.pdb
REMARK  212 active torsions:
REMARK  status: ('A' for Active; 'I' for Inactive)
REMARK    1  A    between atoms: _1  and  _3
REMARK    2  A    between atoms: _3  and  _4
REMARK    3  A    between atoms: _3  and  _6
REMARK    4  A    between atoms: _6  and  _7
REMARK    5  A    between atoms: _10  and  _12
REMARK    6  A    between atoms: _12  and  _13
REMARK    7  A    between atoms: _12  and  _15
REMARK    8  A    between atoms: _17  and  _19
REMARK    9  A    between atoms: _19  and  _20
REMARK   10  A    between atoms: _22  and  _24
REMARK   11  A    between atoms: _24  and  _25
REMARK   12  A    between atoms: _24  and  _27
REMARK   13  A    between atoms: _27  and  _28
REMARK   14  A    between atoms: _30  and  _32
REMARK   15  A    between atoms: _32  and  _33
REMARK   16  A    between atoms: _35  and  _37
REMARK   17  A    between atoms: _37  and  _38
REMARK   18  A    between atoms: _37  and  _40
REMARK   19  A    between atoms: _40  and  _41
REMARK   20  A    between atoms: _44  and  _46
REMARK   21  A    between atoms: _46  and  _47
REMARK   22  A    between atoms: _49  and  _51
REMARK   23  A    between atoms: _51  and  _52
REMARK   24  A    between atoms: _54  and  _56
REMARK   25  A    between atoms: _56  and  _57
REMARK   26  A    between atoms: _56  and  _59
REMARK   27  A    between atoms: _59  and  _60
REMARK   28  A    between atoms: _60  and  _61
REMARK   29  A    between atoms: _61  and  _62
REMARK   30  A    between atoms: _71  and  _73
REMARK   31  A    between atoms: _73  and  _74
REMARK   32  A    between atoms: _73  and  _76
REMARK   33  A    between atoms: _76  and  _77
REMARK   34  A    between atoms: _83  and  _85
REMARK   35  A    between atoms: _85  and  _86
REMARK   36  A    between atoms: _85  and  _88
REMARK   37  A    between atoms: _88  and  _89
REMARK   38  A    between atoms: _94  and  _96
REMARK   39  A    between atoms: _96  and  _97
REMARK   40  A    between atoms: _96  and  _99
REMARK   41  A    between atoms: _99  and  _100
REMARK   42  A    between atoms: _100  and  _101
REMARK   43  A    between atoms: _103  and  _105
REMARK   44  A    between atoms: _105  and  _106
REMARK   45  A    between atoms: _105  and  _108
REMARK   46  A    between atoms: _108  and  _109
REMARK   47  A    between atoms: _114  and  _115
REMARK   48  A    between atoms: _117  and  _119
REMARK   49  A    between atoms: _119  and  _120
REMARK   50  A    between atoms: _119  and  _122
REMARK   51  A    between atoms: _122  and  _123
REMARK   52  A    between atoms: _123  and  _124
REMARK   53  A    between atoms: _127  and  _129
REMARK   54  A    between atoms: _129  and  _130
REMARK   55  A    between atoms: _129  and  _132
REMARK   56  A    between atoms: _132  and  _133
REMARK   57  A    between atoms: _136  and  _138
REMARK   58  A    between atoms: _138  and  _139
REMARK   59  A    between atoms: _138  and  _141
REMARK   60  A    between atoms: _141  and  _142
REMARK   61  A    between atoms: _147  and  _149
REMARK   62  A    between atoms: _149  and  _150
REMARK   63  A    between atoms: _153  and  _155
REMARK   64  A    between atoms: _155  and  _156
REMARK   65  A    between atoms: _159  and  _161
REMARK   66  A    between atoms: _161  and  _162
REMARK   67  A    between atoms: _164  and  _166
REMARK   68  A    between atoms: _166  and  _167
REMARK   69  A    between atoms: _169  and  _171
REMARK   70  A    between atoms: _171  and  _172
REMARK   71  A    between atoms: _171  and  _174
REMARK   72  A    between atoms: _174  and  _175
REMARK   73  A    between atoms: _178  and  _180
REMARK   74  A    between atoms: _180  and  _181
REMARK   75  A    between atoms: _180  and  _183
REMARK   76  A    between atoms: _183  and  _184
REMARK   77  A    between atoms: _189  and  _190
REMARK   78  A    between atoms: _192  and  _194
REMARK   79  A    between atoms: _194  and  _195
REMARK   80  A    between atoms: _194  and  _197
REMARK   81  A    between atoms: _200  and  _202
REMARK   82  A    between atoms: _202  and  _203
REMARK   83  A    between atoms: _202  and  _205
REMARK   84  A    between atoms: _205  and  _206
REMARK   85  A    between atoms: _206  and  _207
REMARK   86  A    between atoms: _209  and  _211
REMARK   87  A    between atoms: _211  and  _212
REMARK   88  A    between atoms: _211  and  _214
REMARK   89  A    between atoms: _214  and  _215
REMARK   90  A    between atoms: _218  and  _220
REMARK   91  A    between atoms: _220  and  _221
REMARK   92  A    between atoms: _223  and  _225
REMARK   93  A    between atoms: _225  and  _226
REMARK   94  A    between atoms: _229  and  _230
REMARK   95  A    between atoms: _235  and  _237
REMARK   96  A    between atoms: _237  and  _238
REMARK   97  A    between atoms: _237  and  _240
REMARK   98  A    between atoms: _240  and  _241
REMARK   99  A    between atoms: _246  and  _248
REMARK  100  A    between atoms: _248  and  _249
REMARK  101  A    between atoms: _248  and  _251
REMARK  102  A    between atoms: _251  and  _252
REMARK  103  A    between atoms: _258  and  _260
REMARK  104  A    between atoms: _260  and  _261
REMARK  105  A    between atoms: _260  and  _263
REMARK  106  A    between atoms: _263  and  _264
REMARK  107  A    between atoms: _264  and  _265
REMARK  108  A    between atoms: _268  and  _270
REMARK  109  A    between atoms: _270  and  _271
REMARK  110  A    between atoms: _270  and  _273
REMARK  111  A    between atoms: _275  and  _277
REMARK  112  A    between atoms: _277  and  _278
REMARK  113  A    between atoms: _277  and  _280
REMARK  114  A    between atoms: _280  and  _281
REMARK  115  A    between atoms: _284  and  _286
REMARK  116  A    between atoms: _286  and  _287
REMARK  117  A    between atoms: _290  and  _292
REMARK  118  A    between atoms: _292  and  _293
REMARK  119  A    between atoms: _292  and  _295
REMARK  120  A    between atoms: _298  and  _300
REMARK  121  A    between atoms: _300  and  _301
REMARK  122  A    between atoms: _303  and  _305
REMARK  123  A    between atoms: _305  and  _306
REMARK  124  A    between atoms: _305  and  _308
REMARK  125  A    between atoms: _308  and  _309
REMARK  126  A    between atoms: _309  and  _310
REMARK  127  A    between atoms: _312  and  _314
REMARK  128  A    between atoms: _314  and  _315
REMARK  129  A    between atoms: _314  and  _317
REMARK  130  A    between atoms: _317  and  _318
REMARK  131  A    between atoms: _320  and  _322
REMARK  132  A    between atoms: _322  and  _323
REMARK  133  A    between atoms: _322  and  _325
REMARK  134  A    between atoms: _325  and  _326
REMARK  135  A    between atoms: _329  and  _331
REMARK  136  A    between atoms: _331  and  _332
REMARK  137  A    between atoms: _331  and  _334
REMARK  138  A    between atoms: _337  and  _339
REMARK  139  A    between atoms: _339  and  _340
REMARK  140  A    between atoms: _339  and  _342
REMARK  141  A    between atoms: _342  and  _343
REMARK  142  A    between atoms: _343  and  _344
REMARK  143  A    between atoms: _347  and  _349
REMARK  144  A    between atoms: _349  and  _350
REMARK  145  A    between atoms: _349  and  _352
REMARK  146  A    between atoms: _352  and  _353
REMARK  147  A    between atoms: _359  and  _361
REMARK  148  A    between atoms: _361  and  _362
REMARK  149  A    between atoms: _361  and  _364
REMARK  150  A    between atoms: _364  and  _365
REMARK  151  A    between atoms: _367  and  _369
REMARK  152  A    between atoms: _369  and  _370
REMARK  153  A    between atoms: _369  and  _372
REMARK  154  A    between atoms: _372  and  _373
REMARK  155  A    between atoms: _376  and  _378
REMARK  156  A    between atoms: _378  and  _379
REMARK  157  A    between atoms: _378  and  _381
REMARK  158  A    between atoms: _381  and  _382
REMARK  159  A    between atoms: _385  and  _387
REMARK  160  A    between atoms: _387  and  _388
REMARK  161  A    between atoms: _387  and  _390
REMARK  162  A    between atoms: _390  and  _391
REMARK  163  A    between atoms: _394  and  _396
REMARK  164  A    between atoms: _396  and  _397
REMARK  165  A    between atoms: _396  and  _399
REMARK  166  A    between atoms: _399  and  _400
REMARK  167  A    between atoms: _405  and  _407
REMARK  168  A    between atoms: _407  and  _408
REMARK  169  A    between atoms: _407  and  _410
REMARK  170  A    between atoms: _410  and  _411
REMARK  171  A    between atoms: _411  and  _412
REMARK  172  A    between atoms: _412  and  _413
REMARK  173  A    between atoms: _413  and  _414
REMARK  174  A    between atoms: _418  and  _420
REMARK  175  A    between atoms: _420  and  _421
REMARK  176  A    between atoms: _420  and  _423
REMARK  177  A    between atoms: _426  and  _428
REMARK  178  A    between atoms: _428  and  _429
REMARK  179  A    between atoms: _428  and  _431
REMARK  180  A    between atoms: _431  and  _432
REMARK  181  A    between atoms: _435  and  _437
REMARK  182  A    between atoms: _437  and  _438
REMARK  183  A    between atoms: _441  and  _443
REMARK  184  A    between atoms: _443  and  _444
REMARK  185  A    between atoms: _443  and  _446
REMARK  186  A    between atoms: _446  and  _447
REMARK  187  A    between atoms: _452  and  _454
REMARK  188  A    between atoms: _454  and  _455
REMARK  189  A    between atoms: _454  and  _457
REMARK  190  A    between atoms: _457  and  _458
REMARK  191  A    between atoms: _463  and  _465
REMARK  192  A    between atoms: _465  and  _466
REMARK  193  A    between atoms: _465  and  _468
REMARK  194  A    between atoms: _468  and  _469
REMARK  195  A    between atoms: _469  and  _470
REMARK  196  A    between atoms: _473  and  _475
REMARK  197  A    between atoms: _475  and  _476
REMARK  198  A    between atoms: _475  and  _478
REMARK  199  A    between atoms: _481  and  _483
REMARK  200  A    between atoms: _483  and  _484
REMARK  201  A    between atoms: _483  and  _486
REMARK  202  A    between atoms: _486  and  _487
REMARK  203  A    between atoms: _490  and  _492
REMARK  204  A    between atoms: _492  and  _493
REMARK  205  A    between atoms: _492  and  _495
REMARK  206  A    between atoms: _495  and  _496
REMARK  207  A    between atoms: _496  and  _497
REMARK  208  A    between atoms: _497  and  _498
REMARK  209  A    between atoms: _507  and  _509
REMARK  210  A    between atoms: _509  and  _510
REMARK  211  A    between atoms: _509  and  _512
REMARK  212  A    between atoms: _512  and  _513
REMARK                            x       y       z     vdW  Elec       q    Type
REMARK                         _______ _______ _______ _____ _____    ______ ____
ROOT
ATOM      1  O   HOH     1      38.225 -19.297  23.546  0.00  0.00    +0.000 OA
ENDROOT
TORSDOF 0
REMARK  Name = ../refined-set-2016/3fuc/3fuc_pocket.pdb
REMARK  212 active torsions:
REMARK  status: ('A' for Active; 'I' for Inactive)
REMARK    1  A    between atoms: _1  and  _3
REMARK    2  A    between atoms: _3  and  _4
REMARK    3  A    between atoms: _3  and  _6
REMARK    4  A    between atoms: _6  and  _7
REMARK    5  A    between atoms: _10  and  _12
REMARK    6  A    between atoms: _12  and  _13
REMARK    7  A    between atoms: _12  and  _15
REMARK    8  A    between atoms: _17  and  _19
REMARK    9  A    between atoms: _19  and  _20
REMARK   10  A    between atoms: _22  and  _24
REMARK   11  A    between atoms: _24  and  _25
REMARK   12  A    between atoms: _24  and  _27
REMARK   13  A    between atoms: _27  and  _28
REMARK   14  A    between atoms: _30  and  _32
REMARK   15  A    between atoms: _32  and  _33
REMARK   16  A    between atoms: _35  and  _37
REMARK   17  A    between atoms: _37  and  _38
REMARK   18  A    between atoms: _37  and  _40
REMARK   19  A    between atoms: _40  and  _41
REMARK   20  A    between atoms: _44  and  _46
REMARK   21  A    between atoms: _46  and  _47
REMARK   22  A    between atoms: _49  and  _51
REMARK   23  A    between atoms: _51  and  _52
REMARK   24  A    between atoms: _54  and  _56
REMARK   25  A    between atoms: _56  and  _57
REMARK   26  A    between atoms: _56  and  _59
REMARK   27  A    between atoms: _59  and  _60
REMARK   28  A    between atoms: _60  and  _61
REMARK   29  A    between atoms: _61  and  _62
REMARK   30  A    between atoms: _71  and  _73
REMARK   31  A    between atoms: _73  and  _74
REMARK   32  A    between atoms: _73  and  _76
REMARK   33  A    between atoms: _76  and  _77
REMARK   34  A    between atoms: _83  and  _85
REMARK   35  A    between atoms: _85  and  _86
REMARK   36  A    between atoms: _85  and  _88
REMARK   37  A    between atoms: _88  and  _89
REMARK   38  A    between atoms: _94  and  _96
REMARK   39  A    between atoms: _96  and  _97
REMARK   40  A    between atoms: _96  and  _99
REMARK   41  A    between atoms: _99  and  _100
REMARK   42  A    between atoms: _100  and  _101
REMARK   43  A    between atoms: _103  and  _105
REMARK   44  A    between atoms: _105  and  _106
REMARK   45  A    between atoms: _105  and  _108
REMARK   46  A    between atoms: _108  and  _109
REMARK   47  A    between atoms: _114  and  _115
REMARK   48  A    between atoms: _117  and  _119
REMARK   49  A    between atoms: _119  and  _120
REMARK   50  A    between atoms: _119  and  _122
REMARK   51  A    between atoms: _122  and  _123
REMARK   52  A    between atoms: _123  and  _124
REMARK   53  A    between atoms: _127  and  _129
REMARK   54  A    between atoms: _129  and  _130
REMARK   55  A    between atoms: _129  and  _132
REMARK   56  A    between atoms: _132  and  _133
REMARK   57  A    between atoms: _136  and  _138
REMARK   58  A    between atoms: _138  and  _139
REMARK   59  A    between atoms: _138  and  _141
REMARK   60  A    between atoms: _141  and  _142
REMARK   61  A    between atoms: _147  and  _149
REMARK   62  A    between atoms: _149  and  _150
REMARK   63  A    between atoms: _153  and  _155
REMARK   64  A    between atoms: _155  and  _156
REMARK   65  A    between atoms: _159  and  _161
REMARK   66  A    between atoms: _161  and  _162
REMARK   67  A    between atoms: _164  and  _166
REMARK   68  A    between atoms: _166  and  _167
REMARK   69  A    between atoms: _169  and  _171
REMARK   70  A    between atoms: _171  and  _172
REMARK   71  A    between atoms: _171  and  _174
REMARK   72  A    between atoms: _174  and  _175
REMARK   73  A    between atoms: _178  and  _180
REMARK   74  A    between atoms: _180  and  _181
REMARK   75  A    between atoms: _180  and  _183
REMARK   76  A    between atoms: _183  and  _184
REMARK   77  A    between atoms: _189  and  _190
REMARK   78  A    between atoms: _192  and  _194
REMARK   79  A    between atoms: _194  and  _195
REMARK   80  A    between atoms: _194  and  _197
REMARK   81  A    between atoms: _200  and  _202
REMARK   82  A    between atoms: _202  and  _203
REMARK   83  A    between atoms: _202  and  _205
REMARK   84  A    between atoms: _205  and  _206
REMARK   85  A    between atoms: _206  and  _207
REMARK   86  A    between atoms: _209  and  _211
REMARK   87  A    between atoms: _211  and  _212
REMARK   88  A    between atoms: _211  and  _214
REMARK   89  A    between atoms: _214  and  _215
REMARK   90  A    between atoms: _218  and  _220
REMARK   91  A    between atoms: _220  and  _221
REMARK   92  A    between atoms: _223  and  _225
REMARK   93  A    between atoms: _225  and  _226
REMARK   94  A    between atoms: _229  and  _230
REMARK   95  A    between atoms: _235  and  _237
REMARK   96  A    between atoms: _237  and  _238
REMARK   97  A    between atoms: _237  and  _240
REMARK   98  A    between atoms: _240  and  _241
REMARK   99  A    between atoms: _246  and  _248
REMARK  100  A    between atoms: _248  and  _249
REMARK  101  A    between atoms: _248  and  _251
REMARK  102  A    between atoms: _251  and  _252
REMARK  103  A    between atoms: _258  and  _260
REMARK  104  A    between atoms: _260  and  _261
REMARK  105  A    between atoms: _260  and  _263
REMARK  106  A    between atoms: _263  and  _264
REMARK  107  A    between atoms: _264  and  _265
REMARK  108  A    between atoms: _268  and  _270
REMARK  109  A    between atoms: _270  and  _271
REMARK  110  A    between atoms: _270  and  _273
REMARK  111  A    between atoms: _275  and  _277
REMARK  112  A    between atoms: _277  and  _278
REMARK  113  A    between atoms: _277  and  _280
REMARK  114  A    between atoms: _280  and  _281
REMARK  115  A    between atoms: _284  and  _286
REMARK  116  A    between atoms: _286  and  _287
REMARK  117  A    between atoms: _290  and  _292
REMARK  118  A    between atoms: _292  and  _293
REMARK  119  A    between atoms: _292  and  _295
REMARK  120  A    between atoms: _298  and  _300
REMARK  121  A    between atoms: _300  and  _301
REMARK  122  A    between atoms: _303  and  _305
REMARK  123  A    between atoms: _305  and  _306
REMARK  124  A    between atoms: _305  and  _308
REMARK  125  A    between atoms: _308  and  _309
REMARK  126  A    between atoms: _309  and  _310
REMARK  127  A    between atoms: _312  and  _314
REMARK  128  A    between atoms: _314  and  _315
REMARK  129  A    between atoms: _314  and  _317
REMARK  130  A    between atoms: _317  and  _318
REMARK  131  A    between atoms: _320  and  _322
REMARK  132  A    between atoms: _322  and  _323
REMARK  133  A    between atoms: _322  and  _325
REMARK  134  A    between atoms: _325  and  _326
REMARK  135  A    between atoms: _329  and  _331
REMARK  136  A    between atoms: _331  and  _332
REMARK  137  A    between atoms: _331  and  _334
REMARK  138  A    between atoms: _337  and  _339
REMARK  139  A    between atoms: _339  and  _340
REMARK  140  A    between atoms: _339  and  _342
REMARK  141  A    between atoms: _342  and  _343
REMARK  142  A    between atoms: _343  and  _344
REMARK  143  A    between atoms: _347  and  _349
REMARK  144  A    between atoms: _349  and  _350
REMARK  145  A    between atoms: _349  and  _352
REMARK  146  A    between atoms: _352  and  _353
REMARK  147  A    between atoms: _359  and  _361
REMARK  148  A    between atoms: _361  and  _362
REMARK  149  A    between atoms: _361  and  _364
REMARK  150  A    between atoms: _364  and  _365
REMARK  151  A    between atoms: _367  and  _369
REMARK  152  A    between atoms: _369  and  _370
REMARK  153  A    between atoms: _369  and  _372
REMARK  154  A    between atoms: _372  and  _373
REMARK  155  A    between atoms: _376  and  _378
REMARK  156  A    between atoms: _378  and  _379
REMARK  157  A    between atoms: _378  and  _381
REMARK  158  A    between atoms: _381  and  _382
REMARK  159  A    between atoms: _385  and  _387
REMARK  160  A    between atoms: _387  and  _388
REMARK  161  A    between atoms: _387  and  _390
REMARK  162  A    between atoms: _390  and  _391
REMARK  163  A    between atoms: _394  and  _396
REMARK  164  A    between atoms: _396  and  _397
REMARK  165  A    between atoms: _396  and  _399
REMARK  166  A    between atoms: _399  and  _400
REMARK  167  A    between atoms: _405  and  _407
REMARK  168  A    between atoms: _407  and  _408
REMARK  169  A    between atoms: _407  and  _410
REMARK  170  A    between atoms: _410  and  _411
REMARK  171  A    between atoms: _411  and  _412
REMARK  172  A    between atoms: _412  and  _413
REMARK  173  A    between atoms: _413  and  _414
REMARK  174  A    between atoms: _418  and  _420
REMARK  175  A    between atoms: _420  and  _421
REMARK  176  A    between atoms: _420  and  _423
REMARK  177  A    between atoms: _426  and  _428
REMARK  178  A    between atoms: _428  and  _429
REMARK  179  A    between atoms: _428  and  _431
REMARK  180  A    between atoms: _431  and  _432
REMARK  181  A    between atoms: _435  and  _437
REMARK  182  A    between atoms: _437  and  _438
REMARK  183  A    between atoms: _441  and  _443
REMARK  184  A    between atoms: _443  and  _444
REMARK  185  A    between atoms: _443  and  _446
REMARK  186  A    between atoms: _446  and  _447
REMARK  187  A    between atoms: _452  and  _454
REMARK  188  A    between atoms: _454  and  _455
REMARK  189  A    between atoms: _454  and  _457
REMARK  190  A    between atoms: _457  and  _458
REMARK  191  A    between atoms: _463  and  _465
REMARK  192  A    between atoms: _465  and  _466
REMARK  193  A    between atoms: _465  and  _468
REMARK  194  A    between atoms: _468  and  _469
REMARK  195  A    between atoms: _469  and  _470
REMARK  196  A    between atoms: _473  and  _475
REMARK  197  A    between atoms: _475  and  _476
REMARK  198  A    between atoms: _475  and  _478
REMARK  199  A    between atoms: _481  and  _483
REMARK  200  A    between atoms: _483  and  _484
REMARK  201  A    between atoms: _483  and  _486
REMARK  202  A    between atoms: _486  and  _487
REMARK  203  A    between atoms: _490  and  _492
REMARK  204  A    between atoms: _492  and  _493
REMARK  205  A    between atoms: _492  and  _495
REMARK  206  A    between atoms: _495  and  _496
REMARK  207  A    between atoms: _496  and  _497
REMARK  208  A    between atoms: _497  and  _498
REMARK  209  A    between atoms: _507  and  _509
REMARK  210  A    between atoms: _509  and  _510
REMARK  211  A    between atoms: _509  and  _512
REMARK  212  A    between atoms: _512  and  _513
REMARK                            x       y       z     vdW  Elec       q    Type
REMARK                         _______ _______ _______ _____ _____    ______ ____
ROOT
ATOM      1  O   HOH     1      39.281 -11.984  20.402  0.00  0.00    +0.000 OA
ENDROOT
TORSDOF 0
REMARK  Name = ../refined-set-2016/3fuc/3fuc_pocket.pdb
REMARK  212 active torsions:
REMARK  status: ('A' for Active; 'I' for Inactive)
REMARK    1  A    between atoms: _1  and  _3
REMARK    2  A    between atoms: _3  and  _4
REMARK    3  A    between atoms: _3  and  _6
REMARK    4  A    between atoms: _6  and  _7
REMARK    5  A    between atoms: _10  and  _12
REMARK    6  A    between atoms: _12  and  _13
REMARK    7  A    between atoms: _12  and  _15
REMARK    8  A    between atoms: _17  and  _19
REMARK    9  A    between atoms: _19  and  _20
REMARK   10  A    between atoms: _22  and  _24
REMARK   11  A    between atoms: _24  and  _25
REMARK   12  A    between atoms: _24  and  _27
REMARK   13  A    between atoms: _27  and  _28
REMARK   14  A    between atoms: _30  and  _32
REMARK   15  A    between atoms: _32  and  _33
REMARK   16  A    between atoms: _35  and  _37
REMARK   17  A    between atoms: _37  and  _38
REMARK   18  A    between atoms: _37  and  _40
REMARK   19  A    between atoms: _40  and  _41
REMARK   20  A    between atoms: _44  and  _46
REMARK   21  A    between atoms: _46  and  _47
REMARK   22  A    between atoms: _49  and  _51
REMARK   23  A    between atoms: _51  and  _52
REMARK   24  A    between atoms: _54  and  _56
REMARK   25  A    between atoms: _56  and  _57
REMARK   26  A    between atoms: _56  and  _59
REMARK   27  A    between atoms: _59  and  _60
REMARK   28  A    between atoms: _60  and  _61
REMARK   29  A    between atoms: _61  and  _62
REMARK   30  A    between atoms: _71  and  _73
REMARK   31  A    between atoms: _73  and  _74
REMARK   32  A    between atoms: _73  and  _76
REMARK   33  A    between atoms: _76  and  _77
REMARK   34  A    between atoms: _83  and  _85
REMARK   35  A    between atoms: _85  and  _86
REMARK   36  A    between atoms: _85  and  _88
REMARK   37  A    between atoms: _88  and  _89
REMARK   38  A    between atoms: _94  and  _96
REMARK   39  A    between atoms: _96  and  _97
REMARK   40  A    between atoms: _96  and  _99
REMARK   41  A    between atoms: _99  and  _100
REMARK   42  A    between atoms: _100  and  _101
REMARK   43  A    between atoms: _103  and  _105
REMARK   44  A    between atoms: _105  and  _106
REMARK   45  A    between atoms: _105  and  _108
REMARK   46  A    between atoms: _108  and  _109
REMARK   47  A    between atoms: _114  and  _115
REMARK   48  A    between atoms: _117  and  _119
REMARK   49  A    between atoms: _119  and  _120
REMARK   50  A    between atoms: _119  and  _122
REMARK   51  A    between atoms: _122  and  _123
REMARK   52  A    between atoms: _123  and  _124
REMARK   53  A    between atoms: _127  and  _129
REMARK   54  A    between atoms: _129  and  _130
REMARK   55  A    between atoms: _129  and  _132
REMARK   56  A    between atoms: _132  and  _133
REMARK   57  A    between atoms: _136  and  _138
REMARK   58  A    between atoms: _138  and  _139
REMARK   59  A    between atoms: _138  and  _141
REMARK   60  A    between atoms: _141  and  _142
REMARK   61  A    between atoms: _147  and  _149
REMARK   62  A    between atoms: _149  and  _150
REMARK   63  A    between atoms: _153  and  _155
REMARK   64  A    between atoms: _155  and  _156
REMARK   65  A    between atoms: _159  and  _161
REMARK   66  A    between atoms: _161  and  _162
REMARK   67  A    between atoms: _164  and  _166
REMARK   68  A    between atoms: _166  and  _167
REMARK   69  A    between atoms: _169  and  _171
REMARK   70  A    between atoms: _171  and  _172
REMARK   71  A    between atoms: _171  and  _174
REMARK   72  A    between atoms: _174  and  _175
REMARK   73  A    between atoms: _178  and  _180
REMARK   74  A    between atoms: _180  and  _181
REMARK   75  A    between atoms: _180  and  _183
REMARK   76  A    between atoms: _183  and  _184
REMARK   77  A    between atoms: _189  and  _190
REMARK   78  A    between atoms: _192  and  _194
REMARK   79  A    between atoms: _194  and  _195
REMARK   80  A    between atoms: _194  and  _197
REMARK   81  A    between atoms: _200  and  _202
REMARK   82  A    between atoms: _202  and  _203
REMARK   83  A    between atoms: _202  and  _205
REMARK   84  A    between atoms: _205  and  _206
REMARK   85  A    between atoms: _206  and  _207
REMARK   86  A    between atoms: _209  and  _211
REMARK   87  A    between atoms: _211  and  _212
REMARK   88  A    between atoms: _211  and  _214
REMARK   89  A    between atoms: _214  and  _215
REMARK   90  A    between atoms: _218  and  _220
REMARK   91  A    between atoms: _220  and  _221
REMARK   92  A    between atoms: _223  and  _225
REMARK   93  A    between atoms: _225  and  _226
REMARK   94  A    between atoms: _229  and  _230
REMARK   95  A    between atoms: _235  and  _237
REMARK   96  A    between atoms: _237  and  _238
REMARK   97  A    between atoms: _237  and  _240
REMARK   98  A    between atoms: _240  and  _241
REMARK   99  A    between atoms: _246  and  _248
REMARK  100  A    between atoms: _248  and  _249
REMARK  101  A    between atoms: _248  and  _251
REMARK  102  A    between atoms: _251  and  _252
REMARK  103  A    between atoms: _258  and  _260
REMARK  104  A    between atoms: _260  and  _261
REMARK  105  A    between atoms: _260  and  _263
REMARK  106  A    between atoms: _263  and  _264
REMARK  107  A    between atoms: _264  and  _265
REMARK  108  A    between atoms: _268  and  _270
REMARK  109  A    between atoms: _270  and  _271
REMARK  110  A    between atoms: _270  and  _273
REMARK  111  A    between atoms: _275  and  _277
REMARK  112  A    between atoms: _277  and  _278
REMARK  113  A    between atoms: _277  and  _280
REMARK  114  A    between atoms: _280  and  _281
REMARK  115  A    between atoms: _284  and  _286
REMARK  116  A    between atoms: _286  and  _287
REMARK  117  A    between atoms: _290  and  _292
REMARK  118  A    between atoms: _292  and  _293
REMARK  119  A    between atoms: _292  and  _295
REMARK  120  A    between atoms: _298  and  _300
REMARK  121  A    between atoms: _300  and  _301
REMARK  122  A    between atoms: _303  and  _305
REMARK  123  A    between atoms: _305  and  _306
REMARK  124  A    between atoms: _305  and  _308
REMARK  125  A    between atoms: _308  and  _309
REMARK  126  A    between atoms: _309  and  _310
REMARK  127  A    between atoms: _312  and  _314
REMARK  128  A    between atoms: _314  and  _315
REMARK  129  A    between atoms: _314  and  _317
REMARK  130  A    between atoms: _317  and  _318
REMARK  131  A    between atoms: _320  and  _322
REMARK  132  A    between atoms: _322  and  _323
REMARK  133  A    between atoms: _322  and  _325
REMARK  134  A    between atoms: _325  and  _326
REMARK  135  A    between atoms: _329  and  _331
REMARK  136  A    between atoms: _331  and  _332
REMARK  137  A    between atoms: _331  and  _334
REMARK  138  A    between atoms: _337  and  _339
REMARK  139  A    between atoms: _339  and  _340
REMARK  140  A    between atoms: _339  and  _342
REMARK  141  A    between atoms: _342  and  _343
REMARK  142  A    between atoms: _343  and  _344
REMARK  143  A    between atoms: _347  and  _349
REMARK  144  A    between atoms: _349  and  _350
REMARK  145  A    between atoms: _349  and  _352
REMARK  146  A    between atoms: _352  and  _353
REMARK  147  A    between atoms: _359  and  _361
REMARK  148  A    between atoms: _361  and  _362
REMARK  149  A    between atoms: _361  and  _364
REMARK  150  A    between atoms: _364  and  _365
REMARK  151  A    between atoms: _367  and  _369
REMARK  152  A    between atoms: _369  and  _370
REMARK  153  A    between atoms: _369  and  _372
REMARK  154  A    between atoms: _372  and  _373
REMARK  155  A    between atoms: _376  and  _378
REMARK  156  A    between atoms: _378  and  _379
REMARK  157  A    between atoms: _378  and  _381
REMARK  158  A    between atoms: _381  and  _382
REMARK  159  A    between atoms: _385  and  _387
REMARK  160  A    between atoms: _387  and  _388
REMARK  161  A    between atoms: _387  and  _390
REMARK  162  A    between atoms: _390  and  _391
REMARK  163  A    between atoms: _394  and  _396
REMARK  164  A    between atoms: _396  and  _397
REMARK  165  A    between atoms: _396  and  _399
REMARK  166  A    between atoms: _399  and  _400
REMARK  167  A    between atoms: _405  and  _407
REMARK  168  A    between atoms: _407  and  _408
REMARK  169  A    between atoms: _407  and  _410
REMARK  170  A    between atoms: _410  and  _411
REMARK  171  A    between atoms: _411  and  _412
REMARK  172  A    between atoms: _412  and  _413
REMARK  173  A    between atoms: _413  and  _414
REMARK  174  A    between atoms: _418  and  _420
REMARK  175  A    between atoms: _420  and  _421
REMARK  176  A    between atoms: _420  and  _423
REMARK  177  A    between atoms: _426  and  _428
REMARK  178  A    between atoms: _428  and  _429
REMARK  179  A    between atoms: _428  and  _431
REMARK  180  A    between atoms: _431  and  _432
REMARK  181  A    between atoms: _435  and  _437
REMARK  182  A    between atoms: _437  and  _438
REMARK  183  A    between atoms: _441  and  _443
REMARK  184  A    between atoms: _443  and  _444
REMARK  185  A    between atoms: _443  and  _446
REMARK  186  A    between atoms: _446  and  _447
REMARK  187  A    between atoms: _452  and  _454
REMARK  188  A    between atoms: _454  and  _455
REMARK  189  A    between atoms: _454  and  _457
REMARK  190  A    between atoms: _457  and  _458
REMARK  191  A    between atoms: _463  and  _465
REMARK  192  A    between atoms: _465  and  _466
REMARK  193  A    between atoms: _465  and  _468
REMARK  194  A    between atoms: _468  and  _469
REMARK  195  A    between atoms: _469  and  _470
REMARK  196  A    between atoms: _473  and  _475
REMARK  197  A    between atoms: _475  and  _476
REMARK  198  A    between atoms: _475  and  _478
REMARK  199  A    between atoms: _481  and  _483
REMARK  200  A    between atoms: _483  and  _484
REMARK  201  A    between atoms: _483  and  _486
REMARK  202  A    between atoms: _486  and  _487
REMARK  203  A    between atoms: _490  and  _492
REMARK  204  A    between atoms: _492  and  _493
REMARK  205  A    between atoms: _492  and  _495
REMARK  206  A    between atoms: _495  and  _496
REMARK  207  A    between atoms: _496  and  _497
REMARK  208  A    between atoms: _497  and  _498
REMARK  209  A    between atoms: _507  and  _509
REMARK  210  A    between atoms: _509  and  _510
REMARK  211  A    between atoms: _509  and  _512
REMARK  212  A    between atoms: _512  and  _513
REMARK                            x       y       z     vdW  Elec       q    Type
REMARK                         _______ _______ _______ _____ _____    ______ ____
ROOT
ATOM      1  O   HOH     1      35.459 -12.021  20.832  0.00  0.00    +0.000 OA
ENDROOT
TORSDOF 0
REMARK  Name = ../refined-set-2016/3fuc/3fuc_pocket.pdb
REMARK  212 active torsions:
REMARK  status: ('A' for Active; 'I' for Inactive)
REMARK    1  A    between atoms: _1  and  _3
REMARK    2  A    between atoms: _3  and  _4
REMARK    3  A    between atoms: _3  and  _6
REMARK    4  A    between atoms: _6  and  _7
REMARK    5  A    between atoms: _10  and  _12
REMARK    6  A    between atoms: _12  and  _13
REMARK    7  A    between atoms: _12  and  _15
REMARK    8  A    between atoms: _17  and  _19
REMARK    9  A    between atoms: _19  and  _20
REMARK   10  A    between atoms: _22  and  _24
REMARK   11  A    between atoms: _24  and  _25
REMARK   12  A    between atoms: _24  and  _27
REMARK   13  A    between atoms: _27  and  _28
REMARK   14  A    between atoms: _30  and  _32
REMARK   15  A    between atoms: _32  and  _33
REMARK   16  A    between atoms: _35  and  _37
REMARK   17  A    between atoms: _37  and  _38
REMARK   18  A    between atoms: _37  and  _40
REMARK   19  A    between atoms: _40  and  _41
REMARK   20  A    between atoms: _44  and  _46
REMARK   21  A    between atoms: _46  and  _47
REMARK   22  A    between atoms: _49  and  _51
REMARK   23  A    between atoms: _51  and  _52
REMARK   24  A    between atoms: _54  and  _56
REMARK   25  A    between atoms: _56  and  _57
REMARK   26  A    between atoms: _56  and  _59
REMARK   27  A    between atoms: _59  and  _60
REMARK   28  A    between atoms: _60  and  _61
REMARK   29  A    between atoms: _61  and  _62
REMARK   30  A    between atoms: _71  and  _73
REMARK   31  A    between atoms: _73  and  _74
REMARK   32  A    between atoms: _73  and  _76
REMARK   33  A    between atoms: _76  and  _77
REMARK   34  A    between atoms: _83  and  _85
REMARK   35  A    between atoms: _85  and  _86
REMARK   36  A    between atoms: _85  and  _88
REMARK   37  A    between atoms: _88  and  _89
REMARK   38  A    between atoms: _94  and  _96
REMARK   39  A    between atoms: _96  and  _97
REMARK   40  A    between atoms: _96  and  _99
REMARK   41  A    between atoms: _99  and  _100
REMARK   42  A    between atoms: _100  and  _101
REMARK   43  A    between atoms: _103  and  _105
REMARK   44  A    between atoms: _105  and  _106
REMARK   45  A    between atoms: _105  and  _108
REMARK   46  A    between atoms: _108  and  _109
REMARK   47  A    between atoms: _114  and  _115
REMARK   48  A    between atoms: _117  and  _119
REMARK   49  A    between atoms: _119  and  _120
REMARK   50  A    between atoms: _119  and  _122
REMARK   51  A    between atoms: _122  and  _123
REMARK   52  A    between atoms: _123  and  _124
REMARK   53  A    between atoms: _127  and  _129
REMARK   54  A    between atoms: _129  and  _130
REMARK   55  A    between atoms: _129  and  _132
REMARK   56  A    between atoms: _132  and  _133
REMARK   57  A    between atoms: _136  and  _138
REMARK   58  A    between atoms: _138  and  _139
REMARK   59  A    between atoms: _138  and  _141
REMARK   60  A    between atoms: _141  and  _142
REMARK   61  A    between atoms: _147  and  _149
REMARK   62  A    between atoms: _149  and  _150
REMARK   63  A    between atoms: _153  and  _155
REMARK   64  A    between atoms: _155  and  _156
REMARK   65  A    between atoms: _159  and  _161
REMARK   66  A    between atoms: _161  and  _162
REMARK   67  A    between atoms: _164  and  _166
REMARK   68  A    between atoms: _166  and  _167
REMARK   69  A    between atoms: _169  and  _171
REMARK   70  A    between atoms: _171  and  _172
REMARK   71  A    between atoms: _171  and  _174
REMARK   72  A    between atoms: _174  and  _175
REMARK   73  A    between atoms: _178  and  _180
REMARK   74  A    between atoms: _180  and  _181
REMARK   75  A    between atoms: _180  and  _183
REMARK   76  A    between atoms: _183  and  _184
REMARK   77  A    between atoms: _189  and  _190
REMARK   78  A    between atoms: _192  and  _194
REMARK   79  A    between atoms: _194  and  _195
REMARK   80  A    between atoms: _194  and  _197
REMARK   81  A    between atoms: _200  and  _202
REMARK   82  A    between atoms: _202  and  _203
REMARK   83  A    between atoms: _202  and  _205
REMARK   84  A    between atoms: _205  and  _206
REMARK   85  A    between atoms: _206  and  _207
REMARK   86  A    between atoms: _209  and  _211
REMARK   87  A    between atoms: _211  and  _212
REMARK   88  A    between atoms: _211  and  _214
REMARK   89  A    between atoms: _214  and  _215
REMARK   90  A    between atoms: _218  and  _220
REMARK   91  A    between atoms: _220  and  _221
REMARK   92  A    between atoms: _223  and  _225
REMARK   93  A    between atoms: _225  and  _226
REMARK   94  A    between atoms: _229  and  _230
REMARK   95  A    between atoms: _235  and  _237
REMARK   96  A    between atoms: _237  and  _238
REMARK   97  A    between atoms: _237  and  _240
REMARK   98  A    between atoms: _240  and  _241
REMARK   99  A    between atoms: _246  and  _248
REMARK  100  A    between atoms: _248  and  _249
REMARK  101  A    between atoms: _248  and  _251
REMARK  102  A    between atoms: _251  and  _252
REMARK  103  A    between atoms: _258  and  _260
REMARK  104  A    between atoms: _260  and  _261
REMARK  105  A    between atoms: _260  and  _263
REMARK  106  A    between atoms: _263  and  _264
REMARK  107  A    between atoms: _264  and  _265
REMARK  108  A    between atoms: _268  and  _270
REMARK  109  A    between atoms: _270  and  _271
REMARK  110  A    between atoms: _270  and  _273
REMARK  111  A    between atoms: _275  and  _277
REMARK  112  A    between atoms: _277  and  _278
REMARK  113  A    between atoms: _277  and  _280
REMARK  114  A    between atoms: _280  and  _281
REMARK  115  A    between atoms: _284  and  _286
REMARK  116  A    between atoms: _286  and  _287
REMARK  117  A    between atoms: _290  and  _292
REMARK  118  A    between atoms: _292  and  _293
REMARK  119  A    between atoms: _292  and  _295
REMARK  120  A    between atoms: _298  and  _300
REMARK  121  A    between atoms: _300  and  _301
REMARK  122  A    between atoms: _303  and  _305
REMARK  123  A    between atoms: _305  and  _306
REMARK  124  A    between atoms: _305  and  _308
REMARK  125  A    between atoms: _308  and  _309
REMARK  126  A    between atoms: _309  and  _310
REMARK  127  A    between atoms: _312  and  _314
REMARK  128  A    between atoms: _314  and  _315
REMARK  129  A    between atoms: _314  and  _317
REMARK  130  A    between atoms: _317  and  _318
REMARK  131  A    between atoms: _320  and  _322
REMARK  132  A    between atoms: _322  and  _323
REMARK  133  A    between atoms: _322  and  _325
REMARK  134  A    between atoms: _325  and  _326
REMARK  135  A    between atoms: _329  and  _331
REMARK  136  A    between atoms: _331  and  _332
REMARK  137  A    between atoms: _331  and  _334
REMARK  138  A    between atoms: _337  and  _339
REMARK  139  A    between atoms: _339  and  _340
REMARK  140  A    between atoms: _339  and  _342
REMARK  141  A    between atoms: _342  and  _343
REMARK  142  A    between atoms: _343  and  _344
REMARK  143  A    between atoms: _347  and  _349
REMARK  144  A    between atoms: _349  and  _350
REMARK  145  A    between atoms: _349  and  _352
REMARK  146  A    between atoms: _352  and  _353
REMARK  147  A    between atoms: _359  and  _361
REMARK  148  A    between atoms: _361  and  _362
REMARK  149  A    between atoms: _361  and  _364
REMARK  150  A    between atoms: _364  and  _365
REMARK  151  A    between atoms: _367  and  _369
REMARK  152  A    between atoms: _369  and  _370
REMARK  153  A    between atoms: _369  and  _372
REMARK  154  A    between atoms: _372  and  _373
REMARK  155  A    between atoms: _376  and  _378
REMARK  156  A    between atoms: _378  and  _379
REMARK  157  A    between atoms: _378  and  _381
REMARK  158  A    between atoms: _381  and  _382
REMARK  159  A    between atoms: _385  and  _387
REMARK  160  A    between atoms: _387  and  _388
REMARK  161  A    between atoms: _387  and  _390
REMARK  162  A    between atoms: _390  and  _391
REMARK  163  A    between atoms: _394  and  _396
REMARK  164  A    between atoms: _396  and  _397
REMARK  165  A    between atoms: _396  and  _399
REMARK  166  A    between atoms: _399  and  _400
REMARK  167  A    between atoms: _405  and  _407
REMARK  168  A    between atoms: _407  and  _408
REMARK  169  A    between atoms: _407  and  _410
REMARK  170  A    between atoms: _410  and  _411
REMARK  171  A    between atoms: _411  and  _412
REMARK  172  A    between atoms: _412  and  _413
REMARK  173  A    between atoms: _413  and  _414
REMARK  174  A    between atoms: _418  and  _420
REMARK  175  A    between atoms: _420  and  _421
REMARK  176  A    between atoms: _420  and  _423
REMARK  177  A    between atoms: _426  and  _428
REMARK  178  A    between atoms: _428  and  _429
REMARK  179  A    between atoms: _428  and  _431
REMARK  180  A    between atoms: _431  and  _432
REMARK  181  A    between atoms: _435  and  _437
REMARK  182  A    between atoms: _437  and  _438
REMARK  183  A    between atoms: _441  and  _443
REMARK  184  A    between atoms: _443  and  _444
REMARK  185  A    between atoms: _443  and  _446
REMARK  186  A    between atoms: _446  and  _447
REMARK  187  A    between atoms: _452  and  _454
REMARK  188  A    between atoms: _454  and  _455
REMARK  189  A    between atoms: _454  and  _457
REMARK  190  A    between atoms: _457  and  _458
REMARK  191  A    between atoms: _463  and  _465
REMARK  192  A    between atoms: _465  and  _466
REMARK  193  A    between atoms: _465  and  _468
REMARK  194  A    between atoms: _468  and  _469
REMARK  195  A    between atoms: _469  and  _470
REMARK  196  A    between atoms: _473  and  _475
REMARK  197  A    between atoms: _475  and  _476
REMARK  198  A    between atoms: _475  and  _478
REMARK  199  A    between atoms: _481  and  _483
REMARK  200  A    between atoms: _483  and  _484
REMARK  201  A    between atoms: _483  and  _486
REMARK  202  A    between atoms: _486  and  _487
REMARK  203  A    between atoms: _490  and  _492
REMARK  204  A    between atoms: _492  and  _493
REMARK  205  A    between atoms: _492  and  _495
REMARK  206  A    between atoms: _495  and  _496
REMARK  207  A    between atoms: _496  and  _497
REMARK  208  A    between atoms: _497  and  _498
REMARK  209  A    between atoms: _507  and  _509
REMARK  210  A    between atoms: _509  and  _510
REMARK  211  A    between atoms: _509  and  _512
REMARK  212  A    between atoms: _512  and  _513
REMARK                            x       y       z     vdW  Elec       q    Type
REMARK                         _______ _______ _______ _____ _____    ______ ____
ROOT
ATOM      1  O   HOH     1      32.957 -16.021  21.464  0.00  0.00    +0.000 OA
ENDROOT
TORSDOF 0
REMARK  Name = ../refined-set-2016/3fuc/3fuc_pocket.pdb
REMARK  212 active torsions:
REMARK  status: ('A' for Active; 'I' for Inactive)
REMARK    1  A    between atoms: _1  and  _3
REMARK    2  A    between atoms: _3  and  _4
REMARK    3  A    between atoms: _3  and  _6
REMARK    4  A    between atoms: _6  and  _7
REMARK    5  A    between atoms: _10  and  _12
REMARK    6  A    between atoms: _12  and  _13
REMARK    7  A    between atoms: _12  and  _15
REMARK    8  A    between atoms: _17  and  _19
REMARK    9  A    between atoms: _19  and  _20
REMARK   10  A    between atoms: _22  and  _24
REMARK   11  A    between atoms: _24  and  _25
REMARK   12  A    between atoms: _24  and  _27
REMARK   13  A    between atoms: _27  and  _28
REMARK   14  A    between atoms: _30  and  _32
REMARK   15  A    between atoms: _32  and  _33
REMARK   16  A    between atoms: _35  and  _37
REMARK   17  A    between atoms: _37  and  _38
REMARK   18  A    between atoms: _37  and  _40
REMARK   19  A    between atoms: _40  and  _41
REMARK   20  A    between atoms: _44  and  _46
REMARK   21  A    between atoms: _46  and  _47
REMARK   22  A    between atoms: _49  and  _51
REMARK   23  A    between atoms: _51  and  _52
REMARK   24  A    between atoms: _54  and  _56
REMARK   25  A    between atoms: _56  and  _57
REMARK   26  A    between atoms: _56  and  _59
REMARK   27  A    between atoms: _59  and  _60
REMARK   28  A    between atoms: _60  and  _61
REMARK   29  A    between atoms: _61  and  _62
REMARK   30  A    between atoms: _71  and  _73
REMARK   31  A    between atoms: _73  and  _74
REMARK   32  A    between atoms: _73  and  _76
REMARK   33  A    between atoms: _76  and  _77
REMARK   34  A    between atoms: _83  and  _85
REMARK   35  A    between atoms: _85  and  _86
REMARK   36  A    between atoms: _85  and  _88
REMARK   37  A    between atoms: _88  and  _89
REMARK   38  A    between atoms: _94  and  _96
REMARK   39  A    between atoms: _96  and  _97
REMARK   40  A    between atoms: _96  and  _99
REMARK   41  A    between atoms: _99  and  _100
REMARK   42  A    between atoms: _100  and  _101
REMARK   43  A    between atoms: _103  and  _105
REMARK   44  A    between atoms: _105  and  _106
REMARK   45  A    between atoms: _105  and  _108
REMARK   46  A    between atoms: _108  and  _109
REMARK   47  A    between atoms: _114  and  _115
REMARK   48  A    between atoms: _117  and  _119
REMARK   49  A    between atoms: _119  and  _120
REMARK   50  A    between atoms: _119  and  _122
REMARK   51  A    between atoms: _122  and  _123
REMARK   52  A    between atoms: _123  and  _124
REMARK   53  A    between atoms: _127  and  _129
REMARK   54  A    between atoms: _129  and  _130
REMARK   55  A    between atoms: _129  and  _132
REMARK   56  A    between atoms: _132  and  _133
REMARK   57  A    between atoms: _136  and  _138
REMARK   58  A    between atoms: _138  and  _139
REMARK   59  A    between atoms: _138  and  _141
REMARK   60  A    between atoms: _141  and  _142
REMARK   61  A    between atoms: _147  and  _149
REMARK   62  A    between atoms: _149  and  _150
REMARK   63  A    between atoms: _153  and  _155
REMARK   64  A    between atoms: _155  and  _156
REMARK   65  A    between atoms: _159  and  _161
REMARK   66  A    between atoms: _161  and  _162
REMARK   67  A    between atoms: _164  and  _166
REMARK   68  A    between atoms: _166  and  _167
REMARK   69  A    between atoms: _169  and  _171
REMARK   70  A    between atoms: _171  and  _172
REMARK   71  A    between atoms: _171  and  _174
REMARK   72  A    between atoms: _174  and  _175
REMARK   73  A    between atoms: _178  and  _180
REMARK   74  A    between atoms: _180  and  _181
REMARK   75  A    between atoms: _180  and  _183
REMARK   76  A    between atoms: _183  and  _184
REMARK   77  A    between atoms: _189  and  _190
REMARK   78  A    between atoms: _192  and  _194
REMARK   79  A    between atoms: _194  and  _195
REMARK   80  A    between atoms: _194  and  _197
REMARK   81  A    between atoms: _200  and  _202
REMARK   82  A    between atoms: _202  and  _203
REMARK   83  A    between atoms: _202  and  _205
REMARK   84  A    between atoms: _205  and  _206
REMARK   85  A    between atoms: _206  and  _207
REMARK   86  A    between atoms: _209  and  _211
REMARK   87  A    between atoms: _211  and  _212
REMARK   88  A    between atoms: _211  and  _214
REMARK   89  A    between atoms: _214  and  _215
REMARK   90  A    between atoms: _218  and  _220
REMARK   91  A    between atoms: _220  and  _221
REMARK   92  A    between atoms: _223  and  _225
REMARK   93  A    between atoms: _225  and  _226
REMARK   94  A    between atoms: _229  and  _230
REMARK   95  A    between atoms: _235  and  _237
REMARK   96  A    between atoms: _237  and  _238
REMARK   97  A    between atoms: _237  and  _240
REMARK   98  A    between atoms: _240  and  _241
REMARK   99  A    between atoms: _246  and  _248
REMARK  100  A    between atoms: _248  and  _249
REMARK  101  A    between atoms: _248  and  _251
REMARK  102  A    between atoms: _251  and  _252
REMARK  103  A    between atoms: _258  and  _260
REMARK  104  A    between atoms: _260  and  _261
REMARK  105  A    between atoms: _260  and  _263
REMARK  106  A    between atoms: _263  and  _264
REMARK  107  A    between atoms: _264  and  _265
REMARK  108  A    between atoms: _268  and  _270
REMARK  109  A    between atoms: _270  and  _271
REMARK  110  A    between atoms: _270  and  _273
REMARK  111  A    between atoms: _275  and  _277
REMARK  112  A    between atoms: _277  and  _278
REMARK  113  A    between atoms: _277  and  _280
REMARK  114  A    between atoms: _280  and  _281
REMARK  115  A    between atoms: _284  and  _286
REMARK  116  A    between atoms: _286  and  _287
REMARK  117  A    between atoms: _290  and  _292
REMARK  118  A    between atoms: _292  and  _293
REMARK  119  A    between atoms: _292  and  _295
REMARK  120  A    between atoms: _298  and  _300
REMARK  121  A    between atoms: _300  and  _301
REMARK  122  A    between atoms: _303  and  _305
REMARK  123  A    between atoms: _305  and  _306
REMARK  124  A    between atoms: _305  and  _308
REMARK  125  A    between atoms: _308  and  _309
REMARK  126  A    between atoms: _309  and  _310
REMARK  127  A    between atoms: _312  and  _314
REMARK  128  A    between atoms: _314  and  _315
REMARK  129  A    between atoms: _314  and  _317
REMARK  130  A    between atoms: _317  and  _318
REMARK  131  A    between atoms: _320  and  _322
REMARK  132  A    between atoms: _322  and  _323
REMARK  133  A    between atoms: _322  and  _325
REMARK  134  A    between atoms: _325  and  _326
REMARK  135  A    between atoms: _329  and  _331
REMARK  136  A    between atoms: _331  and  _332
REMARK  137  A    between atoms: _331  and  _334
REMARK  138  A    between atoms: _337  and  _339
REMARK  139  A    between atoms: _339  and  _340
REMARK  140  A    between atoms: _339  and  _342
REMARK  141  A    between atoms: _342  and  _343
REMARK  142  A    between atoms: _343  and  _344
REMARK  143  A    between atoms: _347  and  _349
REMARK  144  A    between atoms: _349  and  _350
REMARK  145  A    between atoms: _349  and  _352
REMARK  146  A    between atoms: _352  and  _353
REMARK  147  A    between atoms: _359  and  _361
REMARK  148  A    between atoms: _361  and  _362
REMARK  149  A    between atoms: _361  and  _364
REMARK  150  A    between atoms: _364  and  _365
REMARK  151  A    between atoms: _367  and  _369
REMARK  152  A    between atoms: _369  and  _370
REMARK  153  A    between atoms: _369  and  _372
REMARK  154  A    between atoms: _372  and  _373
REMARK  155  A    between atoms: _376  and  _378
REMARK  156  A    between atoms: _378  and  _379
REMARK  157  A    between atoms: _378  and  _381
REMARK  158  A    between atoms: _381  and  _382
REMARK  159  A    between atoms: _385  and  _387
REMARK  160  A    between atoms: _387  and  _388
REMARK  161  A    between atoms: _387  and  _390
REMARK  162  A    between atoms: _390  and  _391
REMARK  163  A    between atoms: _394  and  _396
REMARK  164  A    between atoms: _396  and  _397
REMARK  165  A    between atoms: _396  and  _399
REMARK  166  A    between atoms: _399  and  _400
REMARK  167  A    between atoms: _405  and  _407
REMARK  168  A    between atoms: _407  and  _408
REMARK  169  A    between atoms: _407  and  _410
REMARK  170  A    between atoms: _410  and  _411
REMARK  171  A    between atoms: _411  and  _412
REMARK  172  A    between atoms: _412  and  _413
REMARK  173  A    between atoms: _413  and  _414
REMARK  174  A    between atoms: _418  and  _420
REMARK  175  A    between atoms: _420  and  _421
REMARK  176  A    between atoms: _420  and  _423
REMARK  177  A    between atoms: _426  and  _428
REMARK  178  A    between atoms: _428  and  _429
REMARK  179  A    between atoms: _428  and  _431
REMARK  180  A    between atoms: _431  and  _432
REMARK  181  A    between atoms: _435  and  _437
REMARK  182  A    between atoms: _437  and  _438
REMARK  183  A    between atoms: _441  and  _443
REMARK  184  A    between atoms: _443  and  _444
REMARK  185  A    between atoms: _443  and  _446
REMARK  186  A    between atoms: _446  and  _447
REMARK  187  A    between atoms: _452  and  _454
REMARK  188  A    between atoms: _454  and  _455
REMARK  189  A    between atoms: _454  and  _457
REMARK  190  A    between atoms: _457  and  _458
REMARK  191  A    between atoms: _463  and  _465
REMARK  192  A    between atoms: _465  and  _466
REMARK  193  A    between atoms: _465  and  _468
REMARK  194  A    between atoms: _468  and  _469
REMARK  195  A    between atoms: _469  and  _470
REMARK  196  A    between atoms: _473  and  _475
REMARK  197  A    between atoms: _475  and  _476
REMARK  198  A    between atoms: _475  and  _478
REMARK  199  A    between atoms: _481  and  _483
REMARK  200  A    between atoms: _483  and  _484
REMARK  201  A    between atoms: _483  and  _486
REMARK  202  A    between atoms: _486  and  _487
REMARK  203  A    between atoms: _490  and  _492
REMARK  204  A    between atoms: _492  and  _493
REMARK  205  A    between atoms: _492  and  _495
REMARK  206  A    between atoms: _495  and  _496
REMARK  207  A    between atoms: _496  and  _497
REMARK  208  A    between atoms: _497  and  _498
REMARK  209  A    between atoms: _507  and  _509
REMARK  210  A    between atoms: _509  and  _510
REMARK  211  A    between atoms: _509  and  _512
REMARK  212  A    between atoms: _512  and  _513
REMARK                            x       y       z     vdW  Elec       q    Type
REMARK                         _______ _______ _______ _____ _____    ______ ____
ROOT
ATOM      1  O   HOH     1      36.642  -0.526  33.195  0.00  0.00    +0.000 OA
ENDROOT
TORSDOF 0
