REMARK  Name = ../refined-set-2016/3e93/3e93_pocket.pdb
REMARK  262 active torsions:
REMARK  status: ('A' for Active; 'I' for Inactive)
REMARK    1  A    between atoms: _1  and  _3
REMARK    2  A    between atoms: _3  and  _4
REMARK    3  A    between atoms: _3  and  _6
REMARK    4  A    between atoms: _6  and  _7
REMARK    5  A    between atoms: _17  and  _19
REMARK    6  A    between atoms: _19  and  _20
REMARK    7  A    between atoms: _19  and  _22
REMARK    8  A    between atoms: _22  and  _23
REMARK    9  A    between atoms: _26  and  _27
REMARK   10  A    between atoms: _32  and  _34
REMARK   11  A    between atoms: _34  and  _35
REMARK   12  A    between atoms: _34  and  _37
REMARK   13  A    between atoms: _40  and  _42
REMARK   14  A    between atoms: _42  and  _43
REMARK   15  A    between atoms: _45  and  _47
REMARK   16  A    between atoms: _47  and  _48
REMARK   17  A    between atoms: _47  and  _50
REMARK   18  A    between atoms: _50  and  _51
REMARK   19  A    between atoms: _53  and  _55
REMARK   20  A    between atoms: _55  and  _56
REMARK   21  A    between atoms: _55  and  _58
REMARK   22  A    between atoms: _58  and  _59
REMARK   23  A    between atoms: _61  and  _63
REMARK   24  A    between atoms: _63  and  _64
REMARK   25  A    between atoms: _63  and  _66
REMARK   26  A    between atoms: _69  and  _71
REMARK   27  A    between atoms: _71  and  _72
REMARK   28  A    between atoms: _71  and  _74
REMARK   29  A    between atoms: _76  and  _78
REMARK   30  A    between atoms: _78  and  _79
REMARK   31  A    between atoms: _82  and  _84
REMARK   32  A    between atoms: _84  and  _85
REMARK   33  A    between atoms: _88  and  _90
REMARK   34  A    between atoms: _90  and  _91
REMARK   35  A    between atoms: _90  and  _93
REMARK   36  A    between atoms: _93  and  _94
REMARK   37  A    between atoms: _94  and  _95
REMARK   38  A    between atoms: _95  and  _96
REMARK   39  A    between atoms: _105  and  _107
REMARK   40  A    between atoms: _107  and  _108
REMARK   41  A    between atoms: _107  and  _110
REMARK   42  A    between atoms: _113  and  _115
REMARK   43  A    between atoms: _115  and  _116
REMARK   44  A    between atoms: _119  and  _121
REMARK   45  A    between atoms: _121  and  _122
REMARK   46  A    between atoms: _121  and  _124
REMARK   47  A    between atoms: _127  and  _129
REMARK   48  A    between atoms: _129  and  _130
REMARK   49  A    between atoms: _129  and  _132
REMARK   50  A    between atoms: _132  and  _133
REMARK   51  A    between atoms: _133  and  _134
REMARK   52  A    between atoms: _134  and  _135
REMARK   53  A    between atoms: _135  and  _136
REMARK   54  A    between atoms: _140  and  _142
REMARK   55  A    between atoms: _142  and  _143
REMARK   56  A    between atoms: _142  and  _145
REMARK   57  A    between atoms: _145  and  _146
REMARK   58  A    between atoms: _146  and  _147
REMARK   59  A    between atoms: _147  and  _148
REMARK   60  A    between atoms: _148  and  _149
REMARK   61  A    between atoms: _153  and  _155
REMARK   62  A    between atoms: _155  and  _156
REMARK   63  A    between atoms: _155  and  _158
REMARK   64  A    between atoms: _158  and  _159
REMARK   65  A    between atoms: _162  and  _164
REMARK   66  A    between atoms: _164  and  _165
REMARK   67  A    between atoms: _164  and  _167
REMARK   68  A    between atoms: _167  and  _168
REMARK   69  A    between atoms: _168  and  _169
REMARK   70  A    between atoms: _169  and  _170
REMARK   71  A    between atoms: _179  and  _181
REMARK   72  A    between atoms: _181  and  _182
REMARK   73  A    between atoms: _181  and  _184
REMARK   74  A    between atoms: _184  and  _185
REMARK   75  A    between atoms: _185  and  _186
REMARK   76  A    between atoms: _186  and  _187
REMARK   77  A    between atoms: _196  and  _198
REMARK   78  A    between atoms: _198  and  _199
REMARK   79  A    between atoms: _198  and  _201
REMARK   80  A    between atoms: _201  and  _202
REMARK   81  A    between atoms: _202  and  _203
REMARK   82  A    between atoms: _206  and  _208
REMARK   83  A    between atoms: _208  and  _209
REMARK   84  A    between atoms: _208  and  _211
REMARK   85  A    between atoms: _211  and  _212
REMARK   86  A    between atoms: _215  and  _217
REMARK   87  A    between atoms: _217  and  _218
REMARK   88  A    between atoms: _217  and  _220
REMARK   89  A    between atoms: _220  and  _221
REMARK   90  A    between atoms: _224  and  _226
REMARK   91  A    between atoms: _226  and  _227
REMARK   92  A    between atoms: _226  and  _229
REMARK   93  A    between atoms: _229  and  _230
REMARK   94  A    between atoms: _233  and  _235
REMARK   95  A    between atoms: _235  and  _236
REMARK   96  A    between atoms: _235  and  _238
REMARK   97  A    between atoms: _238  and  _239
REMARK   98  A    between atoms: _239  and  _240
REMARK   99  A    between atoms: _242  and  _244
REMARK  100  A    between atoms: _244  and  _245
REMARK  101  A    between atoms: _244  and  _247
REMARK  102  A    between atoms: _247  and  _248
REMARK  103  A    between atoms: _253  and  _255
REMARK  104  A    between atoms: _255  and  _256
REMARK  105  A    between atoms: _255  and  _258
REMARK  106  A    between atoms: _258  and  _259
REMARK  107  A    between atoms: _264  and  _266
REMARK  108  A    between atoms: _266  and  _267
REMARK  109  A    between atoms: _266  and  _269
REMARK  110  A    between atoms: _272  and  _274
REMARK  111  A    between atoms: _274  and  _275
REMARK  112  A    between atoms: _274  and  _277
REMARK  113  A    between atoms: _277  and  _278
REMARK  114  A    between atoms: _281  and  _283
REMARK  115  A    between atoms: _283  and  _284
REMARK  116  A    between atoms: _286  and  _288
REMARK  117  A    between atoms: _288  and  _289
REMARK  118  A    between atoms: _288  and  _291
REMARK  119  A    between atoms: _291  and  _292
REMARK  120  A    between atoms: _295  and  _297
REMARK  121  A    between atoms: _297  and  _298
REMARK  122  A    between atoms: _297  and  _300
REMARK  123  A    between atoms: _300  and  _301
REMARK  124  A    between atoms: _304  and  _306
REMARK  125  A    between atoms: _306  and  _307
REMARK  126  A    between atoms: _306  and  _309
REMARK  127  A    between atoms: _309  and  _310
REMARK  128  A    between atoms: _313  and  _315
REMARK  129  A    between atoms: _315  and  _316
REMARK  130  A    between atoms: _315  and  _318
REMARK  131  A    between atoms: _318  and  _319
REMARK  132  A    between atoms: _324  and  _325
REMARK  133  A    between atoms: _327  and  _329
REMARK  134  A    between atoms: _329  and  _330
REMARK  135  A    between atoms: _329  and  _332
REMARK  136  A    between atoms: _332  and  _333
REMARK  137  A    between atoms: _336  and  _338
REMARK  138  A    between atoms: _338  and  _339
REMARK  139  A    between atoms: _338  and  _341
REMARK  140  A    between atoms: _344  and  _346
REMARK  141  A    between atoms: _346  and  _347
REMARK  142  A    between atoms: _346  and  _349
REMARK  143  A    between atoms: _349  and  _350
REMARK  144  A    between atoms: _353  and  _355
REMARK  145  A    between atoms: _355  and  _356
REMARK  146  A    between atoms: _355  and  _358
REMARK  147  A    between atoms: _358  and  _359
REMARK  148  A    between atoms: _364  and  _366
REMARK  149  A    between atoms: _366  and  _367
REMARK  150  A    between atoms: _366  and  _369
REMARK  151  A    between atoms: _369  and  _370
REMARK  152  A    between atoms: _373  and  _375
REMARK  153  A    between atoms: _375  and  _376
REMARK  154  A    between atoms: _375  and  _378
REMARK  155  A    between atoms: _378  and  _379
REMARK  156  A    between atoms: _379  and  _380
REMARK  157  A    between atoms: _382  and  _384
REMARK  158  A    between atoms: _384  and  _385
REMARK  159  A    between atoms: _387  and  _389
REMARK  160  A    between atoms: _389  and  _390
REMARK  161  A    between atoms: _393  and  _395
REMARK  162  A    between atoms: _395  and  _396
REMARK  163  A    between atoms: _395  and  _398
REMARK  164  A    between atoms: _398  and  _399
REMARK  165  A    between atoms: _402  and  _404
REMARK  166  A    between atoms: _404  and  _405
REMARK  167  A    between atoms: _404  and  _407
REMARK  168  A    between atoms: _407  and  _408
REMARK  169  A    between atoms: _413  and  _415
REMARK  170  A    between atoms: _415  and  _416
REMARK  171  A    between atoms: _418  and  _420
REMARK  172  A    between atoms: _420  and  _421
REMARK  173  A    between atoms: _420  and  _423
REMARK  174  A    between atoms: _423  and  _424
REMARK  175  A    between atoms: _427  and  _429
REMARK  176  A    between atoms: _429  and  _430
REMARK  177  A    between atoms: _429  and  _432
REMARK  178  A    between atoms: _432  and  _433
REMARK  179  A    between atoms: _438  and  _439
REMARK  180  A    between atoms: _441  and  _443
REMARK  181  A    between atoms: _443  and  _444
REMARK  182  A    between atoms: _443  and  _446
REMARK  183  A    between atoms: _446  and  _447
REMARK  184  A    between atoms: _450  and  _452
REMARK  185  A    between atoms: _452  and  _453
REMARK  186  A    between atoms: _452  and  _455
REMARK  187  A    between atoms: _455  and  _456
REMARK  188  A    between atoms: _461  and  _463
REMARK  189  A    between atoms: _463  and  _464
REMARK  190  A    between atoms: _467  and  _469
REMARK  191  A    between atoms: _469  and  _470
REMARK  192  A    between atoms: _469  and  _472
REMARK  193  A    between atoms: _472  and  _473
REMARK  194  A    between atoms: _476  and  _478
REMARK  195  A    between atoms: _478  and  _479
REMARK  196  A    between atoms: _478  and  _481
REMARK  197  A    between atoms: _481  and  _482
REMARK  198  A    between atoms: _485  and  _487
REMARK  199  A    between atoms: _487  and  _488
REMARK  200  A    between atoms: _487  and  _490
REMARK  201  A    between atoms: _490  and  _491
REMARK  202  A    between atoms: _496  and  _498
REMARK  203  A    between atoms: _498  and  _499
REMARK  204  A    between atoms: _498  and  _501
REMARK  205  A    between atoms: _501  and  _502
REMARK  206  A    between atoms: _502  and  _503
REMARK  207  A    between atoms: _503  and  _504
REMARK  208  A    between atoms: _513  and  _515
REMARK  209  A    between atoms: _515  and  _516
REMARK  210  A    between atoms: _515  and  _518
REMARK  211  A    between atoms: _518  and  _519
REMARK  212  A    between atoms: _522  and  _524
REMARK  213  A    between atoms: _524  and  _525
REMARK  214  A    between atoms: _524  and  _527
REMARK  215  A    between atoms: _527  and  _528
REMARK  216  A    between atoms: _531  and  _533
REMARK  217  A    between atoms: _533  and  _534
REMARK  218  A    between atoms: _533  and  _536
REMARK  219  A    between atoms: _536  and  _537
REMARK  220  A    between atoms: _539  and  _541
REMARK  221  A    between atoms: _541  and  _542
REMARK  222  A    between atoms: _541  and  _544
REMARK  223  A    between atoms: _544  and  _545
REMARK  224  A    between atoms: _550  and  _552
REMARK  225  A    between atoms: _552  and  _553
REMARK  226  A    between atoms: _552  and  _555
REMARK  227  A    between atoms: _555  and  _556
REMARK  228  A    between atoms: _559  and  _561
REMARK  229  A    between atoms: _561  and  _562
REMARK  230  A    between atoms: _565  and  _567
REMARK  231  A    between atoms: _567  and  _568
REMARK  232  A    between atoms: _567  and  _570
REMARK  233  A    between atoms: _570  and  _571
REMARK  234  A    between atoms: _571  and  _572
REMARK  235  A    between atoms: _572  and  _573
REMARK  236  A    between atoms: _573  and  _574
REMARK  237  A    between atoms: _578  and  _580
REMARK  238  A    between atoms: _580  and  _581
REMARK  239  A    between atoms: _580  and  _583
REMARK  240  A    between atoms: _583  and  _584
REMARK  241  A    between atoms: _587  and  _589
REMARK  242  A    between atoms: _589  and  _590
REMARK  243  A    between atoms: _589  and  _592
REMARK  244  A    between atoms: _592  and  _593
REMARK  245  A    between atoms: _596  and  _598
REMARK  246  A    between atoms: _598  and  _599
REMARK  247  A    between atoms: _598  and  _601
REMARK  248  A    between atoms: _601  and  _602
REMARK  249  A    between atoms: _605  and  _607
REMARK  250  A    between atoms: _607  and  _608
REMARK  251  A    between atoms: _607  and  _610
REMARK  252  A    between atoms: _610  and  _611
REMARK  253  A    between atoms: _617  and  _619
REMARK  254  A    between atoms: _619  and  _620
REMARK  255  A    between atoms: _622  and  _624
REMARK  256  A    between atoms: _624  and  _625
REMARK  257  A    between atoms: _624  and  _627
REMARK  258  A    between atoms: _627  and  _628
REMARK  259  A    between atoms: _631  and  _633
REMARK  260  A    between atoms: _633  and  _634
REMARK  261  A    between atoms: _633  and  _636
REMARK  262  A    between atoms: _636  and  _637
REMARK                            x       y       z     vdW  Elec       q    Type
REMARK                         _______ _______ _______ _____ _____    ______ ____
ROOT
ATOM      1  CG  TRP A   1      38.091  32.677  18.679  0.00  0.00    -0.002 A 
ATOM      2  CD2 TRP A   1      38.367  32.631  20.098  0.00  0.00    +0.013 A 
ATOM      3  CE3 TRP A   1      37.841  33.293  21.219  0.00  0.00    +0.001 A 
ATOM      4  CZ3 TRP A   1      38.365  33.003  22.470  0.00  0.00    +0.000 A 
ATOM      5  CH2 TRP A   1      39.399  32.063  22.630  0.00  0.00    +0.001 A 
ATOM      6  CZ2 TRP A   1      39.932  31.397  21.556  0.00  0.00    +0.017 A 
ATOM      7  CE2 TRP A   1      39.407  31.689  20.290  0.00  0.00    +0.056 A 
ATOM      8  NE1 TRP A   1      39.743  31.190  19.057  0.00  0.00    -0.352 N 
ATOM      9  HE1 TRP A   1      40.477  30.476  18.876  0.00  0.00    +0.166 HD
ATOM     10  CD1 TRP A   1      38.956  31.783  18.097  0.00  0.00    +0.068 A 
ENDROOT
BRANCH   1  11
ATOM     11  CB  TRP A   1      37.034  33.510  17.963  0.00  0.00    +0.053 C 
BRANCH  11  12
ATOM     12  CA  TRP A   1      35.852  32.661  17.431  0.00  0.00    +0.137 C 
BRANCH  12  13
ATOM     13  N   TRP A   1      36.242  31.872  16.265  0.00  0.00    -0.239 NA
ATOM     14  H   TRP A   1      36.659  32.358  15.446  0.00  0.00    +0.142 HD
ENDBRANCH  12  13
BRANCH  12  15
ATOM     15  C   TRP A   1      34.670  33.543  17.023  0.00  0.00    +0.224 C 
ATOM     16  O   TRP A   1      34.775  34.336  16.093  0.00  0.00    -0.287 OA
ENDBRANCH  12  15
ENDBRANCH  11  12
ENDBRANCH   1  11
TORSDOF 4
REMARK  Name = ../refined-set-2016/3e93/3e93_pocket.pdb
REMARK  262 active torsions:
REMARK  status: ('A' for Active; 'I' for Inactive)
REMARK    1  A    between atoms: _1  and  _3
REMARK    2  A    between atoms: _3  and  _4
REMARK    3  A    between atoms: _3  and  _6
REMARK    4  A    between atoms: _6  and  _7
REMARK    5  A    between atoms: _17  and  _19
REMARK    6  A    between atoms: _19  and  _20
REMARK    7  A    between atoms: _19  and  _22
REMARK    8  A    between atoms: _22  and  _23
REMARK    9  A    between atoms: _26  and  _27
REMARK   10  A    between atoms: _32  and  _34
REMARK   11  A    between atoms: _34  and  _35
REMARK   12  A    between atoms: _34  and  _37
REMARK   13  A    between atoms: _40  and  _42
REMARK   14  A    between atoms: _42  and  _43
REMARK   15  A    between atoms: _45  and  _47
REMARK   16  A    between atoms: _47  and  _48
REMARK   17  A    between atoms: _47  and  _50
REMARK   18  A    between atoms: _50  and  _51
REMARK   19  A    between atoms: _53  and  _55
REMARK   20  A    between atoms: _55  and  _56
REMARK   21  A    between atoms: _55  and  _58
REMARK   22  A    between atoms: _58  and  _59
REMARK   23  A    between atoms: _61  and  _63
REMARK   24  A    between atoms: _63  and  _64
REMARK   25  A    between atoms: _63  and  _66
REMARK   26  A    between atoms: _69  and  _71
REMARK   27  A    between atoms: _71  and  _72
REMARK   28  A    between atoms: _71  and  _74
REMARK   29  A    between atoms: _76  and  _78
REMARK   30  A    between atoms: _78  and  _79
REMARK   31  A    between atoms: _82  and  _84
REMARK   32  A    between atoms: _84  and  _85
REMARK   33  A    between atoms: _88  and  _90
REMARK   34  A    between atoms: _90  and  _91
REMARK   35  A    between atoms: _90  and  _93
REMARK   36  A    between atoms: _93  and  _94
REMARK   37  A    between atoms: _94  and  _95
REMARK   38  A    between atoms: _95  and  _96
REMARK   39  A    between atoms: _105  and  _107
REMARK   40  A    between atoms: _107  and  _108
REMARK   41  A    between atoms: _107  and  _110
REMARK   42  A    between atoms: _113  and  _115
REMARK   43  A    between atoms: _115  and  _116
REMARK   44  A    between atoms: _119  and  _121
REMARK   45  A    between atoms: _121  and  _122
REMARK   46  A    between atoms: _121  and  _124
REMARK   47  A    between atoms: _127  and  _129
REMARK   48  A    between atoms: _129  and  _130
REMARK   49  A    between atoms: _129  and  _132
REMARK   50  A    between atoms: _132  and  _133
REMARK   51  A    between atoms: _133  and  _134
REMARK   52  A    between atoms: _134  and  _135
REMARK   53  A    between atoms: _135  and  _136
REMARK   54  A    between atoms: _140  and  _142
REMARK   55  A    between atoms: _142  and  _143
REMARK   56  A    between atoms: _142  and  _145
REMARK   57  A    between atoms: _145  and  _146
REMARK   58  A    between atoms: _146  and  _147
REMARK   59  A    between atoms: _147  and  _148
REMARK   60  A    between atoms: _148  and  _149
REMARK   61  A    between atoms: _153  and  _155
REMARK   62  A    between atoms: _155  and  _156
REMARK   63  A    between atoms: _155  and  _158
REMARK   64  A    between atoms: _158  and  _159
REMARK   65  A    between atoms: _162  and  _164
REMARK   66  A    between atoms: _164  and  _165
REMARK   67  A    between atoms: _164  and  _167
REMARK   68  A    between atoms: _167  and  _168
REMARK   69  A    between atoms: _168  and  _169
REMARK   70  A    between atoms: _169  and  _170
REMARK   71  A    between atoms: _179  and  _181
REMARK   72  A    between atoms: _181  and  _182
REMARK   73  A    between atoms: _181  and  _184
REMARK   74  A    between atoms: _184  and  _185
REMARK   75  A    between atoms: _185  and  _186
REMARK   76  A    between atoms: _186  and  _187
REMARK   77  A    between atoms: _196  and  _198
REMARK   78  A    between atoms: _198  and  _199
REMARK   79  A    between atoms: _198  and  _201
REMARK   80  A    between atoms: _201  and  _202
REMARK   81  A    between atoms: _202  and  _203
REMARK   82  A    between atoms: _206  and  _208
REMARK   83  A    between atoms: _208  and  _209
REMARK   84  A    between atoms: _208  and  _211
REMARK   85  A    between atoms: _211  and  _212
REMARK   86  A    between atoms: _215  and  _217
REMARK   87  A    between atoms: _217  and  _218
REMARK   88  A    between atoms: _217  and  _220
REMARK   89  A    between atoms: _220  and  _221
REMARK   90  A    between atoms: _224  and  _226
REMARK   91  A    between atoms: _226  and  _227
REMARK   92  A    between atoms: _226  and  _229
REMARK   93  A    between atoms: _229  and  _230
REMARK   94  A    between atoms: _233  and  _235
REMARK   95  A    between atoms: _235  and  _236
REMARK   96  A    between atoms: _235  and  _238
REMARK   97  A    between atoms: _238  and  _239
REMARK   98  A    between atoms: _239  and  _240
REMARK   99  A    between atoms: _242  and  _244
REMARK  100  A    between atoms: _244  and  _245
REMARK  101  A    between atoms: _244  and  _247
REMARK  102  A    between atoms: _247  and  _248
REMARK  103  A    between atoms: _253  and  _255
REMARK  104  A    between atoms: _255  and  _256
REMARK  105  A    between atoms: _255  and  _258
REMARK  106  A    between atoms: _258  and  _259
REMARK  107  A    between atoms: _264  and  _266
REMARK  108  A    between atoms: _266  and  _267
REMARK  109  A    between atoms: _266  and  _269
REMARK  110  A    between atoms: _272  and  _274
REMARK  111  A    between atoms: _274  and  _275
REMARK  112  A    between atoms: _274  and  _277
REMARK  113  A    between atoms: _277  and  _278
REMARK  114  A    between atoms: _281  and  _283
REMARK  115  A    between atoms: _283  and  _284
REMARK  116  A    between atoms: _286  and  _288
REMARK  117  A    between atoms: _288  and  _289
REMARK  118  A    between atoms: _288  and  _291
REMARK  119  A    between atoms: _291  and  _292
REMARK  120  A    between atoms: _295  and  _297
REMARK  121  A    between atoms: _297  and  _298
REMARK  122  A    between atoms: _297  and  _300
REMARK  123  A    between atoms: _300  and  _301
REMARK  124  A    between atoms: _304  and  _306
REMARK  125  A    between atoms: _306  and  _307
REMARK  126  A    between atoms: _306  and  _309
REMARK  127  A    between atoms: _309  and  _310
REMARK  128  A    between atoms: _313  and  _315
REMARK  129  A    between atoms: _315  and  _316
REMARK  130  A    between atoms: _315  and  _318
REMARK  131  A    between atoms: _318  and  _319
REMARK  132  A    between atoms: _324  and  _325
REMARK  133  A    between atoms: _327  and  _329
REMARK  134  A    between atoms: _329  and  _330
REMARK  135  A    between atoms: _329  and  _332
REMARK  136  A    between atoms: _332  and  _333
REMARK  137  A    between atoms: _336  and  _338
REMARK  138  A    between atoms: _338  and  _339
REMARK  139  A    between atoms: _338  and  _341
REMARK  140  A    between atoms: _344  and  _346
REMARK  141  A    between atoms: _346  and  _347
REMARK  142  A    between atoms: _346  and  _349
REMARK  143  A    between atoms: _349  and  _350
REMARK  144  A    between atoms: _353  and  _355
REMARK  145  A    between atoms: _355  and  _356
REMARK  146  A    between atoms: _355  and  _358
REMARK  147  A    between atoms: _358  and  _359
REMARK  148  A    between atoms: _364  and  _366
REMARK  149  A    between atoms: _366  and  _367
REMARK  150  A    between atoms: _366  and  _369
REMARK  151  A    between atoms: _369  and  _370
REMARK  152  A    between atoms: _373  and  _375
REMARK  153  A    between atoms: _375  and  _376
REMARK  154  A    between atoms: _375  and  _378
REMARK  155  A    between atoms: _378  and  _379
REMARK  156  A    between atoms: _379  and  _380
REMARK  157  A    between atoms: _382  and  _384
REMARK  158  A    between atoms: _384  and  _385
REMARK  159  A    between atoms: _387  and  _389
REMARK  160  A    between atoms: _389  and  _390
REMARK  161  A    between atoms: _393  and  _395
REMARK  162  A    between atoms: _395  and  _396
REMARK  163  A    between atoms: _395  and  _398
REMARK  164  A    between atoms: _398  and  _399
REMARK  165  A    between atoms: _402  and  _404
REMARK  166  A    between atoms: _404  and  _405
REMARK  167  A    between atoms: _404  and  _407
REMARK  168  A    between atoms: _407  and  _408
REMARK  169  A    between atoms: _413  and  _415
REMARK  170  A    between atoms: _415  and  _416
REMARK  171  A    between atoms: _418  and  _420
REMARK  172  A    between atoms: _420  and  _421
REMARK  173  A    between atoms: _420  and  _423
REMARK  174  A    between atoms: _423  and  _424
REMARK  175  A    between atoms: _427  and  _429
REMARK  176  A    between atoms: _429  and  _430
REMARK  177  A    between atoms: _429  and  _432
REMARK  178  A    between atoms: _432  and  _433
REMARK  179  A    between atoms: _438  and  _439
REMARK  180  A    between atoms: _441  and  _443
REMARK  181  A    between atoms: _443  and  _444
REMARK  182  A    between atoms: _443  and  _446
REMARK  183  A    between atoms: _446  and  _447
REMARK  184  A    between atoms: _450  and  _452
REMARK  185  A    between atoms: _452  and  _453
REMARK  186  A    between atoms: _452  and  _455
REMARK  187  A    between atoms: _455  and  _456
REMARK  188  A    between atoms: _461  and  _463
REMARK  189  A    between atoms: _463  and  _464
REMARK  190  A    between atoms: _467  and  _469
REMARK  191  A    between atoms: _469  and  _470
REMARK  192  A    between atoms: _469  and  _472
REMARK  193  A    between atoms: _472  and  _473
REMARK  194  A    between atoms: _476  and  _478
REMARK  195  A    between atoms: _478  and  _479
REMARK  196  A    between atoms: _478  and  _481
REMARK  197  A    between atoms: _481  and  _482
REMARK  198  A    between atoms: _485  and  _487
REMARK  199  A    between atoms: _487  and  _488
REMARK  200  A    between atoms: _487  and  _490
REMARK  201  A    between atoms: _490  and  _491
REMARK  202  A    between atoms: _496  and  _498
REMARK  203  A    between atoms: _498  and  _499
REMARK  204  A    between atoms: _498  and  _501
REMARK  205  A    between atoms: _501  and  _502
REMARK  206  A    between atoms: _502  and  _503
REMARK  207  A    between atoms: _503  and  _504
REMARK  208  A    between atoms: _513  and  _515
REMARK  209  A    between atoms: _515  and  _516
REMARK  210  A    between atoms: _515  and  _518
REMARK  211  A    between atoms: _518  and  _519
REMARK  212  A    between atoms: _522  and  _524
REMARK  213  A    between atoms: _524  and  _525
REMARK  214  A    between atoms: _524  and  _527
REMARK  215  A    between atoms: _527  and  _528
REMARK  216  A    between atoms: _531  and  _533
REMARK  217  A    between atoms: _533  and  _534
REMARK  218  A    between atoms: _533  and  _536
REMARK  219  A    between atoms: _536  and  _537
REMARK  220  A    between atoms: _539  and  _541
REMARK  221  A    between atoms: _541  and  _542
REMARK  222  A    between atoms: _541  and  _544
REMARK  223  A    between atoms: _544  and  _545
REMARK  224  A    between atoms: _550  and  _552
REMARK  225  A    between atoms: _552  and  _553
REMARK  226  A    between atoms: _552  and  _555
REMARK  227  A    between atoms: _555  and  _556
REMARK  228  A    between atoms: _559  and  _561
REMARK  229  A    between atoms: _561  and  _562
REMARK  230  A    between atoms: _565  and  _567
REMARK  231  A    between atoms: _567  and  _568
REMARK  232  A    between atoms: _567  and  _570
REMARK  233  A    between atoms: _570  and  _571
REMARK  234  A    between atoms: _571  and  _572
REMARK  235  A    between atoms: _572  and  _573
REMARK  236  A    between atoms: _573  and  _574
REMARK  237  A    between atoms: _578  and  _580
REMARK  238  A    between atoms: _580  and  _581
REMARK  239  A    between atoms: _580  and  _583
REMARK  240  A    between atoms: _583  and  _584
REMARK  241  A    between atoms: _587  and  _589
REMARK  242  A    between atoms: _589  and  _590
REMARK  243  A    between atoms: _589  and  _592
REMARK  244  A    between atoms: _592  and  _593
REMARK  245  A    between atoms: _596  and  _598
REMARK  246  A    between atoms: _598  and  _599
REMARK  247  A    between atoms: _598  and  _601
REMARK  248  A    between atoms: _601  and  _602
REMARK  249  A    between atoms: _605  and  _607
REMARK  250  A    between atoms: _607  and  _608
REMARK  251  A    between atoms: _607  and  _610
REMARK  252  A    between atoms: _610  and  _611
REMARK  253  A    between atoms: _617  and  _619
REMARK  254  A    between atoms: _619  and  _620
REMARK  255  A    between atoms: _622  and  _624
REMARK  256  A    between atoms: _624  and  _625
REMARK  257  A    between atoms: _624  and  _627
REMARK  258  A    between atoms: _627  and  _628
REMARK  259  A    between atoms: _631  and  _633
REMARK  260  A    between atoms: _633  and  _634
REMARK  261  A    between atoms: _633  and  _636
REMARK  262  A    between atoms: _636  and  _637
REMARK                            x       y       z     vdW  Elec       q    Type
REMARK                         _______ _______ _______ _____ _____    ______ ____
ROOT
ATOM      1  CA  VAL A   3      47.785  33.147  24.247  0.00  0.00    +0.149 C 
ENDROOT
BRANCH   1   3
ATOM      2  C   PRO A   2      47.011  33.759  22.010  0.00  0.00    +0.241 C 
ATOM      3  N   VAL A   3      46.811  33.116  23.154  0.00  0.00    -0.297 N 
ATOM      4  H   VAL A   3      45.933  32.572  23.278  0.00  0.00    +0.150 HD
ATOM      5  O   PRO A   2      48.036  34.374  21.766  0.00  0.00    -0.273 OA
BRANCH   2   9
ATOM      6  C   SER A   1      45.394  36.151  21.057  0.00  0.00    +0.244 C 
ATOM      7  O   SER A   1      45.335  36.169  22.288  0.00  0.00    -0.273 OA
ATOM      8  N   PRO A   2      45.654  35.028  20.346  0.00  0.00    -0.272 N 
ATOM      9  CA  PRO A   2      45.880  33.721  20.982  0.00  0.00    +0.152 C 
ATOM     10  CB  PRO A   2      46.261  32.817  19.800  0.00  0.00    +0.031 C 
ATOM     11  CG  PRO A   2      45.624  33.451  18.620  0.00  0.00    +0.024 C 
ATOM     12  CD  PRO A   2      45.746  34.935  18.878  0.00  0.00    +0.094 C 
BRANCH   6  13
ATOM     13  CA  SER A   1      45.191  37.443  20.280  0.00  0.00    +0.175 C 
BRANCH  13  14
ATOM     14  N   SER A   1      43.871  37.997  20.541  0.00  0.00    -0.236 NA
ATOM     15  H   SER A   1      43.502  37.986  21.513  0.00  0.00    +0.142 HD
ENDBRANCH  13  14
BRANCH  13  16
ATOM     16  CB  SER A   1      46.274  38.449  20.669  0.00  0.00    +0.163 C 
BRANCH  16  17
ATOM     17  OG  SER A   1      47.554  37.956  20.310  0.00  0.00    -0.380 OA
ATOM     18  H   SER A   1      48.245  38.617  20.567  0.00  0.00    +0.211 HD
ENDBRANCH  16  17
ENDBRANCH  13  16
ENDBRANCH   6  13
ENDBRANCH   2   9
ENDBRANCH   1   3
BRANCH   1  19
ATOM     19  C   VAL A   3      47.901  31.804  24.991  0.00  0.00    +0.241 C 
ATOM     20  O   VAL A   3      48.633  31.693  25.990  0.00  0.00    -0.273 OA
ATOM     21  N   GLY A   4      47.186  30.782  24.525  0.00  0.00    -0.295 N 
ATOM     22  H   GLY A   4      46.601  30.908  23.674  0.00  0.00    +0.150 HD
BRANCH  21  23
ATOM     23  CA  GLY A   4      47.216  29.478  25.202  0.00  0.00    +0.176 C 
BRANCH  23  24
ATOM     24  C   GLY A   4      46.190  28.487  24.696  0.00  0.00    +0.243 C 
ATOM     25  O   GLY A   4      45.011  28.812  24.524  0.00  0.00    -0.273 OA
ATOM     26  N   SER A   5      46.643  27.261  24.469  0.00  0.00    -0.296 N 
ATOM     27  H   SER A   5      47.617  27.023  24.744  0.00  0.00    +0.150 HD
BRANCH  26  28
ATOM     28  CA  SER A   5      45.813  26.239  23.845  0.00  0.00    +0.166 C 
BRANCH  28  29
ATOM     29  CB  SER A   5      46.035  24.846  24.443  0.00  0.00    +0.229 C 
ATOM     30  OG  SER A   5      47.163  24.482  24.810  0.00  0.00    -0.286 OA
ENDBRANCH  28  29
BRANCH  28  31
ATOM     31  C   SER A   5      46.074  26.217  22.332  0.00  0.00    +0.165 C 
BRANCH  31  32
ATOM     32  O   SER A   5      45.082  25.466  21.661  0.00  0.00    -0.380 OA
ATOM     33  H   SER A   5      45.271  25.466  20.689  0.00  0.00    +0.211 HD
ENDBRANCH  31  32
ENDBRANCH  28  31
ENDBRANCH  26  28
ENDBRANCH  23  24
ENDBRANCH  21  23
ENDBRANCH   1  19
BRANCH   1  34
ATOM     34  CB  VAL A   3      47.477  34.300  25.277  0.00  0.00    +0.027 C 
ATOM     35  CG2 VAL A   3      46.043  34.230  25.791  0.00  0.00    +0.002 C 
ATOM     36  CG1 VAL A   3      47.765  35.685  24.684  0.00  0.00    +0.002 C 
ENDBRANCH   1  34
TORSDOF 14
REMARK  Name = ../refined-set-2016/3e93/3e93_pocket.pdb
REMARK  262 active torsions:
REMARK  status: ('A' for Active; 'I' for Inactive)
REMARK    1  A    between atoms: _1  and  _3
REMARK    2  A    between atoms: _3  and  _4
REMARK    3  A    between atoms: _3  and  _6
REMARK    4  A    between atoms: _6  and  _7
REMARK    5  A    between atoms: _17  and  _19
REMARK    6  A    between atoms: _19  and  _20
REMARK    7  A    between atoms: _19  and  _22
REMARK    8  A    between atoms: _22  and  _23
REMARK    9  A    between atoms: _26  and  _27
REMARK   10  A    between atoms: _32  and  _34
REMARK   11  A    between atoms: _34  and  _35
REMARK   12  A    between atoms: _34  and  _37
REMARK   13  A    between atoms: _40  and  _42
REMARK   14  A    between atoms: _42  and  _43
REMARK   15  A    between atoms: _45  and  _47
REMARK   16  A    between atoms: _47  and  _48
REMARK   17  A    between atoms: _47  and  _50
REMARK   18  A    between atoms: _50  and  _51
REMARK   19  A    between atoms: _53  and  _55
REMARK   20  A    between atoms: _55  and  _56
REMARK   21  A    between atoms: _55  and  _58
REMARK   22  A    between atoms: _58  and  _59
REMARK   23  A    between atoms: _61  and  _63
REMARK   24  A    between atoms: _63  and  _64
REMARK   25  A    between atoms: _63  and  _66
REMARK   26  A    between atoms: _69  and  _71
REMARK   27  A    between atoms: _71  and  _72
REMARK   28  A    between atoms: _71  and  _74
REMARK   29  A    between atoms: _76  and  _78
REMARK   30  A    between atoms: _78  and  _79
REMARK   31  A    between atoms: _82  and  _84
REMARK   32  A    between atoms: _84  and  _85
REMARK   33  A    between atoms: _88  and  _90
REMARK   34  A    between atoms: _90  and  _91
REMARK   35  A    between atoms: _90  and  _93
REMARK   36  A    between atoms: _93  and  _94
REMARK   37  A    between atoms: _94  and  _95
REMARK   38  A    between atoms: _95  and  _96
REMARK   39  A    between atoms: _105  and  _107
REMARK   40  A    between atoms: _107  and  _108
REMARK   41  A    between atoms: _107  and  _110
REMARK   42  A    between atoms: _113  and  _115
REMARK   43  A    between atoms: _115  and  _116
REMARK   44  A    between atoms: _119  and  _121
REMARK   45  A    between atoms: _121  and  _122
REMARK   46  A    between atoms: _121  and  _124
REMARK   47  A    between atoms: _127  and  _129
REMARK   48  A    between atoms: _129  and  _130
REMARK   49  A    between atoms: _129  and  _132
REMARK   50  A    between atoms: _132  and  _133
REMARK   51  A    between atoms: _133  and  _134
REMARK   52  A    between atoms: _134  and  _135
REMARK   53  A    between atoms: _135  and  _136
REMARK   54  A    between atoms: _140  and  _142
REMARK   55  A    between atoms: _142  and  _143
REMARK   56  A    between atoms: _142  and  _145
REMARK   57  A    between atoms: _145  and  _146
REMARK   58  A    between atoms: _146  and  _147
REMARK   59  A    between atoms: _147  and  _148
REMARK   60  A    between atoms: _148  and  _149
REMARK   61  A    between atoms: _153  and  _155
REMARK   62  A    between atoms: _155  and  _156
REMARK   63  A    between atoms: _155  and  _158
REMARK   64  A    between atoms: _158  and  _159
REMARK   65  A    between atoms: _162  and  _164
REMARK   66  A    between atoms: _164  and  _165
REMARK   67  A    between atoms: _164  and  _167
REMARK   68  A    between atoms: _167  and  _168
REMARK   69  A    between atoms: _168  and  _169
REMARK   70  A    between atoms: _169  and  _170
REMARK   71  A    between atoms: _179  and  _181
REMARK   72  A    between atoms: _181  and  _182
REMARK   73  A    between atoms: _181  and  _184
REMARK   74  A    between atoms: _184  and  _185
REMARK   75  A    between atoms: _185  and  _186
REMARK   76  A    between atoms: _186  and  _187
REMARK   77  A    between atoms: _196  and  _198
REMARK   78  A    between atoms: _198  and  _199
REMARK   79  A    between atoms: _198  and  _201
REMARK   80  A    between atoms: _201  and  _202
REMARK   81  A    between atoms: _202  and  _203
REMARK   82  A    between atoms: _206  and  _208
REMARK   83  A    between atoms: _208  and  _209
REMARK   84  A    between atoms: _208  and  _211
REMARK   85  A    between atoms: _211  and  _212
REMARK   86  A    between atoms: _215  and  _217
REMARK   87  A    between atoms: _217  and  _218
REMARK   88  A    between atoms: _217  and  _220
REMARK   89  A    between atoms: _220  and  _221
REMARK   90  A    between atoms: _224  and  _226
REMARK   91  A    between atoms: _226  and  _227
REMARK   92  A    between atoms: _226  and  _229
REMARK   93  A    between atoms: _229  and  _230
REMARK   94  A    between atoms: _233  and  _235
REMARK   95  A    between atoms: _235  and  _236
REMARK   96  A    between atoms: _235  and  _238
REMARK   97  A    between atoms: _238  and  _239
REMARK   98  A    between atoms: _239  and  _240
REMARK   99  A    between atoms: _242  and  _244
REMARK  100  A    between atoms: _244  and  _245
REMARK  101  A    between atoms: _244  and  _247
REMARK  102  A    between atoms: _247  and  _248
REMARK  103  A    between atoms: _253  and  _255
REMARK  104  A    between atoms: _255  and  _256
REMARK  105  A    between atoms: _255  and  _258
REMARK  106  A    between atoms: _258  and  _259
REMARK  107  A    between atoms: _264  and  _266
REMARK  108  A    between atoms: _266  and  _267
REMARK  109  A    between atoms: _266  and  _269
REMARK  110  A    between atoms: _272  and  _274
REMARK  111  A    between atoms: _274  and  _275
REMARK  112  A    between atoms: _274  and  _277
REMARK  113  A    between atoms: _277  and  _278
REMARK  114  A    between atoms: _281  and  _283
REMARK  115  A    between atoms: _283  and  _284
REMARK  116  A    between atoms: _286  and  _288
REMARK  117  A    between atoms: _288  and  _289
REMARK  118  A    between atoms: _288  and  _291
REMARK  119  A    between atoms: _291  and  _292
REMARK  120  A    between atoms: _295  and  _297
REMARK  121  A    between atoms: _297  and  _298
REMARK  122  A    between atoms: _297  and  _300
REMARK  123  A    between atoms: _300  and  _301
REMARK  124  A    between atoms: _304  and  _306
REMARK  125  A    between atoms: _306  and  _307
REMARK  126  A    between atoms: _306  and  _309
REMARK  127  A    between atoms: _309  and  _310
REMARK  128  A    between atoms: _313  and  _315
REMARK  129  A    between atoms: _315  and  _316
REMARK  130  A    between atoms: _315  and  _318
REMARK  131  A    between atoms: _318  and  _319
REMARK  132  A    between atoms: _324  and  _325
REMARK  133  A    between atoms: _327  and  _329
REMARK  134  A    between atoms: _329  and  _330
REMARK  135  A    between atoms: _329  and  _332
REMARK  136  A    between atoms: _332  and  _333
REMARK  137  A    between atoms: _336  and  _338
REMARK  138  A    between atoms: _338  and  _339
REMARK  139  A    between atoms: _338  and  _341
REMARK  140  A    between atoms: _344  and  _346
REMARK  141  A    between atoms: _346  and  _347
REMARK  142  A    between atoms: _346  and  _349
REMARK  143  A    between atoms: _349  and  _350
REMARK  144  A    between atoms: _353  and  _355
REMARK  145  A    between atoms: _355  and  _356
REMARK  146  A    between atoms: _355  and  _358
REMARK  147  A    between atoms: _358  and  _359
REMARK  148  A    between atoms: _364  and  _366
REMARK  149  A    between atoms: _366  and  _367
REMARK  150  A    between atoms: _366  and  _369
REMARK  151  A    between atoms: _369  and  _370
REMARK  152  A    between atoms: _373  and  _375
REMARK  153  A    between atoms: _375  and  _376
REMARK  154  A    between atoms: _375  and  _378
REMARK  155  A    between atoms: _378  and  _379
REMARK  156  A    between atoms: _379  and  _380
REMARK  157  A    between atoms: _382  and  _384
REMARK  158  A    between atoms: _384  and  _385
REMARK  159  A    between atoms: _387  and  _389
REMARK  160  A    between atoms: _389  and  _390
REMARK  161  A    between atoms: _393  and  _395
REMARK  162  A    between atoms: _395  and  _396
REMARK  163  A    between atoms: _395  and  _398
REMARK  164  A    between atoms: _398  and  _399
REMARK  165  A    between atoms: _402  and  _404
REMARK  166  A    between atoms: _404  and  _405
REMARK  167  A    between atoms: _404  and  _407
REMARK  168  A    between atoms: _407  and  _408
REMARK  169  A    between atoms: _413  and  _415
REMARK  170  A    between atoms: _415  and  _416
REMARK  171  A    between atoms: _418  and  _420
REMARK  172  A    between atoms: _420  and  _421
REMARK  173  A    between atoms: _420  and  _423
REMARK  174  A    between atoms: _423  and  _424
REMARK  175  A    between atoms: _427  and  _429
REMARK  176  A    between atoms: _429  and  _430
REMARK  177  A    between atoms: _429  and  _432
REMARK  178  A    between atoms: _432  and  _433
REMARK  179  A    between atoms: _438  and  _439
REMARK  180  A    between atoms: _441  and  _443
REMARK  181  A    between atoms: _443  and  _444
REMARK  182  A    between atoms: _443  and  _446
REMARK  183  A    between atoms: _446  and  _447
REMARK  184  A    between atoms: _450  and  _452
REMARK  185  A    between atoms: _452  and  _453
REMARK  186  A    between atoms: _452  and  _455
REMARK  187  A    between atoms: _455  and  _456
REMARK  188  A    between atoms: _461  and  _463
REMARK  189  A    between atoms: _463  and  _464
REMARK  190  A    between atoms: _467  and  _469
REMARK  191  A    between atoms: _469  and  _470
REMARK  192  A    between atoms: _469  and  _472
REMARK  193  A    between atoms: _472  and  _473
REMARK  194  A    between atoms: _476  and  _478
REMARK  195  A    between atoms: _478  and  _479
REMARK  196  A    between atoms: _478  and  _481
REMARK  197  A    between atoms: _481  and  _482
REMARK  198  A    between atoms: _485  and  _487
REMARK  199  A    between atoms: _487  and  _488
REMARK  200  A    between atoms: _487  and  _490
REMARK  201  A    between atoms: _490  and  _491
REMARK  202  A    between atoms: _496  and  _498
REMARK  203  A    between atoms: _498  and  _499
REMARK  204  A    between atoms: _498  and  _501
REMARK  205  A    between atoms: _501  and  _502
REMARK  206  A    between atoms: _502  and  _503
REMARK  207  A    between atoms: _503  and  _504
REMARK  208  A    between atoms: _513  and  _515
REMARK  209  A    between atoms: _515  and  _516
REMARK  210  A    between atoms: _515  and  _518
REMARK  211  A    between atoms: _518  and  _519
REMARK  212  A    between atoms: _522  and  _524
REMARK  213  A    between atoms: _524  and  _525
REMARK  214  A    between atoms: _524  and  _527
REMARK  215  A    between atoms: _527  and  _528
REMARK  216  A    between atoms: _531  and  _533
REMARK  217  A    between atoms: _533  and  _534
REMARK  218  A    between atoms: _533  and  _536
REMARK  219  A    between atoms: _536  and  _537
REMARK  220  A    between atoms: _539  and  _541
REMARK  221  A    between atoms: _541  and  _542
REMARK  222  A    between atoms: _541  and  _544
REMARK  223  A    between atoms: _544  and  _545
REMARK  224  A    between atoms: _550  and  _552
REMARK  225  A    between atoms: _552  and  _553
REMARK  226  A    between atoms: _552  and  _555
REMARK  227  A    between atoms: _555  and  _556
REMARK  228  A    between atoms: _559  and  _561
REMARK  229  A    between atoms: _561  and  _562
REMARK  230  A    between atoms: _565  and  _567
REMARK  231  A    between atoms: _567  and  _568
REMARK  232  A    between atoms: _567  and  _570
REMARK  233  A    between atoms: _570  and  _571
REMARK  234  A    between atoms: _571  and  _572
REMARK  235  A    between atoms: _572  and  _573
REMARK  236  A    between atoms: _573  and  _574
REMARK  237  A    between atoms: _578  and  _580
REMARK  238  A    between atoms: _580  and  _581
REMARK  239  A    between atoms: _580  and  _583
REMARK  240  A    between atoms: _583  and  _584
REMARK  241  A    between atoms: _587  and  _589
REMARK  242  A    between atoms: _589  and  _590
REMARK  243  A    between atoms: _589  and  _592
REMARK  244  A    between atoms: _592  and  _593
REMARK  245  A    between atoms: _596  and  _598
REMARK  246  A    between atoms: _598  and  _599
REMARK  247  A    between atoms: _598  and  _601
REMARK  248  A    between atoms: _601  and  _602
REMARK  249  A    between atoms: _605  and  _607
REMARK  250  A    between atoms: _607  and  _608
REMARK  251  A    between atoms: _607  and  _610
REMARK  252  A    between atoms: _610  and  _611
REMARK  253  A    between atoms: _617  and  _619
REMARK  254  A    between atoms: _619  and  _620
REMARK  255  A    between atoms: _622  and  _624
REMARK  256  A    between atoms: _624  and  _625
REMARK  257  A    between atoms: _624  and  _627
REMARK  258  A    between atoms: _627  and  _628
REMARK  259  A    between atoms: _631  and  _633
REMARK  260  A    between atoms: _633  and  _634
REMARK  261  A    between atoms: _633  and  _636
REMARK  262  A    between atoms: _636  and  _637
REMARK                            x       y       z     vdW  Elec       q    Type
REMARK                         _______ _______ _______ _____ _____    ______ ____
ROOT
ATOM      1  C   VAL A   2      43.117  32.546  24.329  0.00  0.00    +0.241 C 
ATOM      2  N   CYS A   3      42.389  33.663  24.309  0.00  0.00    -0.296 N 
ATOM      3  H   CYS A   3      41.473  33.672  24.802  0.00  0.00    +0.150 HD
ATOM      4  O   VAL A   2      44.141  32.375  23.642  0.00  0.00    -0.273 OA
ENDROOT
BRANCH   1   5
ATOM      5  CA  VAL A   2      42.584  31.434  25.224  0.00  0.00    +0.148 C 
BRANCH   5   8
ATOM      6  C   SER A   1      41.711  29.285  24.485  0.00  0.00    +0.241 C 
ATOM      7  O   SER A   1      40.539  29.622  24.685  0.00  0.00    -0.274 OA
ATOM      8  N   VAL A   2      42.737  30.126  24.584  0.00  0.00    -0.297 N 
ATOM      9  H   VAL A   2      43.663  29.850  24.200  0.00  0.00    +0.150 HD
BRANCH   6  10
ATOM     10  CA  SER A   1      42.060  27.849  24.109  0.00  0.00    +0.174 C 
BRANCH  10  11
ATOM     11  N   SER A   1      41.009  26.952  24.576  0.00  0.00    -0.236 NA
ATOM     12  H   SER A   1      40.025  27.288  24.574  0.00  0.00    +0.142 HD
ENDBRANCH  10  11
BRANCH  10  13
ATOM     13  CB  SER A   1      42.248  27.724  22.601  0.00  0.00    +0.163 C 
BRANCH  13  14
ATOM     14  OG  SER A   1      41.008  27.878  21.939  0.00  0.00    -0.380 OA
ATOM     15  H   SER A   1      41.144  27.795  20.962  0.00  0.00    +0.211 HD
ENDBRANCH  13  14
ENDBRANCH  10  13
ENDBRANCH   6  10
ENDBRANCH   5   8
BRANCH   5  16
ATOM     16  CB  VAL A   2      43.240  31.467  26.649  0.00  0.00    +0.027 C 
ATOM     17  CG2 VAL A   2      42.775  30.280  27.495  0.00  0.00    +0.002 C 
ATOM     18  CG1 VAL A   2      42.894  32.752  27.390  0.00  0.00    +0.002 C 
ENDBRANCH   5  16
ENDBRANCH   1   5
BRANCH   2  19
ATOM     19  CA  CYS A   3      42.831  34.880  23.617  0.00  0.00    +0.160 C 
BRANCH  19  20
ATOM     20  C   CYS A   3      42.857  36.046  24.593  0.00  0.00    +0.242 C 
ATOM     21  O   CYS A   3      41.940  36.201  25.403  0.00  0.00    -0.273 OA
ATOM     22  N   ALA A   4      43.914  36.853  24.515  0.00  0.00    -0.297 N 
ATOM     23  H   ALA A   4      44.769  36.528  24.021  0.00  0.00    +0.150 HD
BRANCH  22  24
ATOM     24  CA  ALA A   4      43.894  38.186  25.111  0.00  0.00    +0.149 C 
ATOM     25  CB  ALA A   4      45.288  38.762  25.221  0.00  0.00    +0.031 C 
BRANCH  24  26
ATOM     26  C   ALA A   4      43.022  39.064  24.229  0.00  0.00    +0.241 C 
ATOM     27  N   ALA A   5      42.254  39.951  24.854  0.00  0.00    -0.298 N 
ATOM     28  H   ALA A   5      42.271  39.991  25.893  0.00  0.00    +0.150 HD
ATOM     29  O   ALA A   4      43.020  38.921  23.008  0.00  0.00    -0.273 OA
BRANCH  27  30
ATOM     30  CA  ALA A   5      41.383  40.875  24.120  0.00  0.00    +0.137 C 
ATOM     31  CB  ALA A   5      40.012  40.252  23.904  0.00  0.00    +0.030 C 
BRANCH  30  32
ATOM     32  C   ALA A   5      41.258  42.206  24.859  0.00  0.00    +0.227 C 
ATOM     33  O   ALA A   5      41.739  42.358  25.993  0.00  0.00    -0.286 OA
ENDBRANCH  30  32
ENDBRANCH  27  30
ENDBRANCH  24  26
ENDBRANCH  22  24
ENDBRANCH  19  20
BRANCH  19  34
ATOM     34  CB  CYS A   3      41.890  35.239  22.455  0.00  0.00    +0.098 C 
ATOM     35  SG  CYS A   3      42.078  34.228  20.965  0.00  0.00    -0.080 S 
ENDBRANCH  19  34
ENDBRANCH   2  19
TORSDOF 14
REMARK  Name = ../refined-set-2016/3e93/3e93_pocket.pdb
REMARK  262 active torsions:
REMARK  status: ('A' for Active; 'I' for Inactive)
REMARK    1  A    between atoms: _1  and  _3
REMARK    2  A    between atoms: _3  and  _4
REMARK    3  A    between atoms: _3  and  _6
REMARK    4  A    between atoms: _6  and  _7
REMARK    5  A    between atoms: _17  and  _19
REMARK    6  A    between atoms: _19  and  _20
REMARK    7  A    between atoms: _19  and  _22
REMARK    8  A    between atoms: _22  and  _23
REMARK    9  A    between atoms: _26  and  _27
REMARK   10  A    between atoms: _32  and  _34
REMARK   11  A    between atoms: _34  and  _35
REMARK   12  A    between atoms: _34  and  _37
REMARK   13  A    between atoms: _40  and  _42
REMARK   14  A    between atoms: _42  and  _43
REMARK   15  A    between atoms: _45  and  _47
REMARK   16  A    between atoms: _47  and  _48
REMARK   17  A    between atoms: _47  and  _50
REMARK   18  A    between atoms: _50  and  _51
REMARK   19  A    between atoms: _53  and  _55
REMARK   20  A    between atoms: _55  and  _56
REMARK   21  A    between atoms: _55  and  _58
REMARK   22  A    between atoms: _58  and  _59
REMARK   23  A    between atoms: _61  and  _63
REMARK   24  A    between atoms: _63  and  _64
REMARK   25  A    between atoms: _63  and  _66
REMARK   26  A    between atoms: _69  and  _71
REMARK   27  A    between atoms: _71  and  _72
REMARK   28  A    between atoms: _71  and  _74
REMARK   29  A    between atoms: _76  and  _78
REMARK   30  A    between atoms: _78  and  _79
REMARK   31  A    between atoms: _82  and  _84
REMARK   32  A    between atoms: _84  and  _85
REMARK   33  A    between atoms: _88  and  _90
REMARK   34  A    between atoms: _90  and  _91
REMARK   35  A    between atoms: _90  and  _93
REMARK   36  A    between atoms: _93  and  _94
REMARK   37  A    between atoms: _94  and  _95
REMARK   38  A    between atoms: _95  and  _96
REMARK   39  A    between atoms: _105  and  _107
REMARK   40  A    between atoms: _107  and  _108
REMARK   41  A    between atoms: _107  and  _110
REMARK   42  A    between atoms: _113  and  _115
REMARK   43  A    between atoms: _115  and  _116
REMARK   44  A    between atoms: _119  and  _121
REMARK   45  A    between atoms: _121  and  _122
REMARK   46  A    between atoms: _121  and  _124
REMARK   47  A    between atoms: _127  and  _129
REMARK   48  A    between atoms: _129  and  _130
REMARK   49  A    between atoms: _129  and  _132
REMARK   50  A    between atoms: _132  and  _133
REMARK   51  A    between atoms: _133  and  _134
REMARK   52  A    between atoms: _134  and  _135
REMARK   53  A    between atoms: _135  and  _136
REMARK   54  A    between atoms: _140  and  _142
REMARK   55  A    between atoms: _142  and  _143
REMARK   56  A    between atoms: _142  and  _145
REMARK   57  A    between atoms: _145  and  _146
REMARK   58  A    between atoms: _146  and  _147
REMARK   59  A    between atoms: _147  and  _148
REMARK   60  A    between atoms: _148  and  _149
REMARK   61  A    between atoms: _153  and  _155
REMARK   62  A    between atoms: _155  and  _156
REMARK   63  A    between atoms: _155  and  _158
REMARK   64  A    between atoms: _158  and  _159
REMARK   65  A    between atoms: _162  and  _164
REMARK   66  A    between atoms: _164  and  _165
REMARK   67  A    between atoms: _164  and  _167
REMARK   68  A    between atoms: _167  and  _168
REMARK   69  A    between atoms: _168  and  _169
REMARK   70  A    between atoms: _169  and  _170
REMARK   71  A    between atoms: _179  and  _181
REMARK   72  A    between atoms: _181  and  _182
REMARK   73  A    between atoms: _181  and  _184
REMARK   74  A    between atoms: _184  and  _185
REMARK   75  A    between atoms: _185  and  _186
REMARK   76  A    between atoms: _186  and  _187
REMARK   77  A    between atoms: _196  and  _198
REMARK   78  A    between atoms: _198  and  _199
REMARK   79  A    between atoms: _198  and  _201
REMARK   80  A    between atoms: _201  and  _202
REMARK   81  A    between atoms: _202  and  _203
REMARK   82  A    between atoms: _206  and  _208
REMARK   83  A    between atoms: _208  and  _209
REMARK   84  A    between atoms: _208  and  _211
REMARK   85  A    between atoms: _211  and  _212
REMARK   86  A    between atoms: _215  and  _217
REMARK   87  A    between atoms: _217  and  _218
REMARK   88  A    between atoms: _217  and  _220
REMARK   89  A    between atoms: _220  and  _221
REMARK   90  A    between atoms: _224  and  _226
REMARK   91  A    between atoms: _226  and  _227
REMARK   92  A    between atoms: _226  and  _229
REMARK   93  A    between atoms: _229  and  _230
REMARK   94  A    between atoms: _233  and  _235
REMARK   95  A    between atoms: _235  and  _236
REMARK   96  A    between atoms: _235  and  _238
REMARK   97  A    between atoms: _238  and  _239
REMARK   98  A    between atoms: _239  and  _240
REMARK   99  A    between atoms: _242  and  _244
REMARK  100  A    between atoms: _244  and  _245
REMARK  101  A    between atoms: _244  and  _247
REMARK  102  A    between atoms: _247  and  _248
REMARK  103  A    between atoms: _253  and  _255
REMARK  104  A    between atoms: _255  and  _256
REMARK  105  A    between atoms: _255  and  _258
REMARK  106  A    between atoms: _258  and  _259
REMARK  107  A    between atoms: _264  and  _266
REMARK  108  A    between atoms: _266  and  _267
REMARK  109  A    between atoms: _266  and  _269
REMARK  110  A    between atoms: _272  and  _274
REMARK  111  A    between atoms: _274  and  _275
REMARK  112  A    between atoms: _274  and  _277
REMARK  113  A    between atoms: _277  and  _278
REMARK  114  A    between atoms: _281  and  _283
REMARK  115  A    between atoms: _283  and  _284
REMARK  116  A    between atoms: _286  and  _288
REMARK  117  A    between atoms: _288  and  _289
REMARK  118  A    between atoms: _288  and  _291
REMARK  119  A    between atoms: _291  and  _292
REMARK  120  A    between atoms: _295  and  _297
REMARK  121  A    between atoms: _297  and  _298
REMARK  122  A    between atoms: _297  and  _300
REMARK  123  A    between atoms: _300  and  _301
REMARK  124  A    between atoms: _304  and  _306
REMARK  125  A    between atoms: _306  and  _307
REMARK  126  A    between atoms: _306  and  _309
REMARK  127  A    between atoms: _309  and  _310
REMARK  128  A    between atoms: _313  and  _315
REMARK  129  A    between atoms: _315  and  _316
REMARK  130  A    between atoms: _315  and  _318
REMARK  131  A    between atoms: _318  and  _319
REMARK  132  A    between atoms: _324  and  _325
REMARK  133  A    between atoms: _327  and  _329
REMARK  134  A    between atoms: _329  and  _330
REMARK  135  A    between atoms: _329  and  _332
REMARK  136  A    between atoms: _332  and  _333
REMARK  137  A    between atoms: _336  and  _338
REMARK  138  A    between atoms: _338  and  _339
REMARK  139  A    between atoms: _338  and  _341
REMARK  140  A    between atoms: _344  and  _346
REMARK  141  A    between atoms: _346  and  _347
REMARK  142  A    between atoms: _346  and  _349
REMARK  143  A    between atoms: _349  and  _350
REMARK  144  A    between atoms: _353  and  _355
REMARK  145  A    between atoms: _355  and  _356
REMARK  146  A    between atoms: _355  and  _358
REMARK  147  A    between atoms: _358  and  _359
REMARK  148  A    between atoms: _364  and  _366
REMARK  149  A    between atoms: _366  and  _367
REMARK  150  A    between atoms: _366  and  _369
REMARK  151  A    between atoms: _369  and  _370
REMARK  152  A    between atoms: _373  and  _375
REMARK  153  A    between atoms: _375  and  _376
REMARK  154  A    between atoms: _375  and  _378
REMARK  155  A    between atoms: _378  and  _379
REMARK  156  A    between atoms: _379  and  _380
REMARK  157  A    between atoms: _382  and  _384
REMARK  158  A    between atoms: _384  and  _385
REMARK  159  A    between atoms: _387  and  _389
REMARK  160  A    between atoms: _389  and  _390
REMARK  161  A    between atoms: _393  and  _395
REMARK  162  A    between atoms: _395  and  _396
REMARK  163  A    between atoms: _395  and  _398
REMARK  164  A    between atoms: _398  and  _399
REMARK  165  A    between atoms: _402  and  _404
REMARK  166  A    between atoms: _404  and  _405
REMARK  167  A    between atoms: _404  and  _407
REMARK  168  A    between atoms: _407  and  _408
REMARK  169  A    between atoms: _413  and  _415
REMARK  170  A    between atoms: _415  and  _416
REMARK  171  A    between atoms: _418  and  _420
REMARK  172  A    between atoms: _420  and  _421
REMARK  173  A    between atoms: _420  and  _423
REMARK  174  A    between atoms: _423  and  _424
REMARK  175  A    between atoms: _427  and  _429
REMARK  176  A    between atoms: _429  and  _430
REMARK  177  A    between atoms: _429  and  _432
REMARK  178  A    between atoms: _432  and  _433
REMARK  179  A    between atoms: _438  and  _439
REMARK  180  A    between atoms: _441  and  _443
REMARK  181  A    between atoms: _443  and  _444
REMARK  182  A    between atoms: _443  and  _446
REMARK  183  A    between atoms: _446  and  _447
REMARK  184  A    between atoms: _450  and  _452
REMARK  185  A    between atoms: _452  and  _453
REMARK  186  A    between atoms: _452  and  _455
REMARK  187  A    between atoms: _455  and  _456
REMARK  188  A    between atoms: _461  and  _463
REMARK  189  A    between atoms: _463  and  _464
REMARK  190  A    between atoms: _467  and  _469
REMARK  191  A    between atoms: _469  and  _470
REMARK  192  A    between atoms: _469  and  _472
REMARK  193  A    between atoms: _472  and  _473
REMARK  194  A    between atoms: _476  and  _478
REMARK  195  A    between atoms: _478  and  _479
REMARK  196  A    between atoms: _478  and  _481
REMARK  197  A    between atoms: _481  and  _482
REMARK  198  A    between atoms: _485  and  _487
REMARK  199  A    between atoms: _487  and  _488
REMARK  200  A    between atoms: _487  and  _490
REMARK  201  A    between atoms: _490  and  _491
REMARK  202  A    between atoms: _496  and  _498
REMARK  203  A    between atoms: _498  and  _499
REMARK  204  A    between atoms: _498  and  _501
REMARK  205  A    between atoms: _501  and  _502
REMARK  206  A    between atoms: _502  and  _503
REMARK  207  A    between atoms: _503  and  _504
REMARK  208  A    between atoms: _513  and  _515
REMARK  209  A    between atoms: _515  and  _516
REMARK  210  A    between atoms: _515  and  _518
REMARK  211  A    between atoms: _518  and  _519
REMARK  212  A    between atoms: _522  and  _524
REMARK  213  A    between atoms: _524  and  _525
REMARK  214  A    between atoms: _524  and  _527
REMARK  215  A    between atoms: _527  and  _528
REMARK  216  A    between atoms: _531  and  _533
REMARK  217  A    between atoms: _533  and  _534
REMARK  218  A    between atoms: _533  and  _536
REMARK  219  A    between atoms: _536  and  _537
REMARK  220  A    between atoms: _539  and  _541
REMARK  221  A    between atoms: _541  and  _542
REMARK  222  A    between atoms: _541  and  _544
REMARK  223  A    between atoms: _544  and  _545
REMARK  224  A    between atoms: _550  and  _552
REMARK  225  A    between atoms: _552  and  _553
REMARK  226  A    between atoms: _552  and  _555
REMARK  227  A    between atoms: _555  and  _556
REMARK  228  A    between atoms: _559  and  _561
REMARK  229  A    between atoms: _561  and  _562
REMARK  230  A    between atoms: _565  and  _567
REMARK  231  A    between atoms: _567  and  _568
REMARK  232  A    between atoms: _567  and  _570
REMARK  233  A    between atoms: _570  and  _571
REMARK  234  A    between atoms: _571  and  _572
REMARK  235  A    between atoms: _572  and  _573
REMARK  236  A    between atoms: _573  and  _574
REMARK  237  A    between atoms: _578  and  _580
REMARK  238  A    between atoms: _580  and  _581
REMARK  239  A    between atoms: _580  and  _583
REMARK  240  A    between atoms: _583  and  _584
REMARK  241  A    between atoms: _587  and  _589
REMARK  242  A    between atoms: _589  and  _590
REMARK  243  A    between atoms: _589  and  _592
REMARK  244  A    between atoms: _592  and  _593
REMARK  245  A    between atoms: _596  and  _598
REMARK  246  A    between atoms: _598  and  _599
REMARK  247  A    between atoms: _598  and  _601
REMARK  248  A    between atoms: _601  and  _602
REMARK  249  A    between atoms: _605  and  _607
REMARK  250  A    between atoms: _607  and  _608
REMARK  251  A    between atoms: _607  and  _610
REMARK  252  A    between atoms: _610  and  _611
REMARK  253  A    between atoms: _617  and  _619
REMARK  254  A    between atoms: _619  and  _620
REMARK  255  A    between atoms: _622  and  _624
REMARK  256  A    between atoms: _624  and  _625
REMARK  257  A    between atoms: _624  and  _627
REMARK  258  A    between atoms: _627  and  _628
REMARK  259  A    between atoms: _631  and  _633
REMARK  260  A    between atoms: _633  and  _634
REMARK  261  A    between atoms: _633  and  _636
REMARK  262  A    between atoms: _636  and  _637
REMARK                            x       y       z     vdW  Elec       q    Type
REMARK                         _______ _______ _______ _____ _____    ______ ____
ROOT
ATOM      1  CA  VAL A   4      38.546  34.961  26.730  0.00  0.00    +0.149 C 
ENDROOT
BRANCH   1   2
ATOM      2  C   VAL A   4      38.944  33.519  26.462  0.00  0.00    +0.241 C 
ATOM      3  N   LYS A   5      38.332  32.592  27.192  0.00  0.00    -0.297 N 
ATOM      4  H   LYS A   5      37.671  32.891  27.937  0.00  0.00    +0.150 HD
ATOM      5  O   VAL A   4      39.798  33.265  25.620  0.00  0.00    -0.273 OA
BRANCH   3   6
ATOM      6  CA  LYS A   5      38.562  31.165  26.977  0.00  0.00    +0.149 C 
BRANCH   6   7
ATOM      7  C   LYS A   5      37.371  30.566  26.254  0.00  0.00    +0.241 C 
ATOM      8  O   LYS A   5      36.238  30.611  26.755  0.00  0.00    -0.273 OA
ATOM      9  N   LYS A   6      37.630  30.030  25.075  0.00  0.00    -0.297 N 
ATOM     10  H   LYS A   6      38.565  30.186  24.647  0.00  0.00    +0.150 HD
BRANCH   9  11
ATOM     11  CA  LYS A   6      36.655  29.232  24.358  0.00  0.00    +0.149 C 
BRANCH  11  12
ATOM     12  C   LYS A   6      36.855  27.788  24.769  0.00  0.00    +0.241 C 
ATOM     13  N   LEU A   7      35.844  27.204  25.403  0.00  0.00    -0.298 N 
ATOM     14  H   LEU A   7      34.981  27.747  25.606  0.00  0.00    +0.150 HD
ATOM     15  O   LYS A   6      37.915  27.221  24.541  0.00  0.00    -0.273 OA
BRANCH  13  16
ATOM     16  CA  LEU A   7      35.932  25.815  25.816  0.00  0.00    +0.137 C 
BRANCH  16  17
ATOM     17  C   LEU A   7      35.963  24.917  24.591  0.00  0.00    +0.227 C 
ATOM     18  O   LEU A   7      35.236  25.138  23.622  0.00  0.00    -0.286 OA
ENDBRANCH  16  17
BRANCH  16  19
ATOM     19  CB  LEU A   7      34.773  25.440  26.746  0.00  0.00    +0.028 C 
BRANCH  19  20
ATOM     20  CG  LEU A   7      34.668  26.134  28.102  0.00  0.00    +0.002 C 
ATOM     21  CD2 LEU A   7      33.556  25.485  28.894  0.00  0.00    +0.000 C 
ATOM     22  CD1 LEU A   7      35.965  25.990  28.847  0.00  0.00    +0.000 C 
ENDBRANCH  19  20
ENDBRANCH  16  19
ENDBRANCH  13  16
ENDBRANCH  11  12
BRANCH  11  23
ATOM     23  CB  LYS A   6      36.829  29.375  22.846  0.00  0.00    +0.029 C 
BRANCH  23  24
ATOM     24  CG  LYS A   6      35.778  28.571  22.061  0.00  0.00    +0.000 C 
BRANCH  24  25
ATOM     25  CD  LYS A   6      35.976  28.714  20.576  0.00  0.00    -0.024 C 
BRANCH  25  26
ATOM     26  CE  LYS A   6      34.838  28.001  19.869  0.00  0.00    -0.086 C 
BRANCH  26  27
ATOM     27  NZ  LYS A   6      35.269  27.633  18.515  0.00  0.00    +0.380 N 
ATOM     28  HZ1 LYS A   6      36.094  27.003  18.574  0.00  0.00    -0.089 HD
ATOM     29  HZ2 LYS A   6      34.492  27.144  18.026  0.00  0.00    -0.089 HD
ATOM     30  HZ3 LYS A   6      35.525  28.493  17.988  0.00  0.00    -0.089 HD
ENDBRANCH  26  27
ENDBRANCH  25  26
ENDBRANCH  24  25
ENDBRANCH  23  24
ENDBRANCH  11  23
ENDBRANCH   9  11
ENDBRANCH   6   7
BRANCH   6  31
ATOM     31  CB  LYS A   5      38.746  30.421  28.308  0.00  0.00    +0.029 C 
BRANCH  31  32
ATOM     32  CG  LYS A   5      39.456  29.045  28.161  0.00  0.00    +0.000 C 
BRANCH  32  33
ATOM     33  CD  LYS A   5      38.990  27.963  29.134  0.00  0.00    -0.024 C 
BRANCH  33  34
ATOM     34  CE  LYS A   5      39.129  28.286  30.613  0.00  0.00    -0.086 C 
BRANCH  34  35
ATOM     35  NZ  LYS A   5      39.365  27.011  31.407  0.00  0.00    +0.380 N 
ATOM     36  HZ1 LYS A   5      39.458  27.245  32.416  0.00  0.00    -0.089 HD
ATOM     37  HZ2 LYS A   5      38.560  26.366  31.272  0.00  0.00    -0.089 HD
ATOM     38  HZ3 LYS A   5      40.237  26.553  31.074  0.00  0.00    -0.089 HD
ENDBRANCH  34  35
ENDBRANCH  33  34
ENDBRANCH  32  33
ENDBRANCH  31  32
ENDBRANCH   6  31
ENDBRANCH   3   6
ENDBRANCH   1   2
BRANCH   1  41
ATOM     39  C   ALA A   3      39.874  36.222  28.336  0.00  0.00    +0.241 C 
ATOM     40  O   ALA A   3      38.982  36.223  29.191  0.00  0.00    -0.273 OA
ATOM     41  N   VAL A   4      39.749  35.646  27.150  0.00  0.00    -0.297 N 
ATOM     42  H   VAL A   4      40.552  35.688  26.491  0.00  0.00    +0.150 HD
BRANCH  39  43
ATOM     43  CA  ALA A   3      41.233  36.856  28.607  0.00  0.00    +0.149 C 
ATOM     44  CB  ALA A   3      42.041  35.944  29.534  0.00  0.00    +0.031 C 
BRANCH  43  46
ATOM     45  C   VAL A   2      41.284  39.316  28.576  0.00  0.00    +0.241 C 
ATOM     46  N   ALA A   3      41.048  38.172  29.208  0.00  0.00    -0.297 N 
ATOM     47  H   ALA A   3      40.711  38.217  30.191  0.00  0.00    +0.150 HD
ATOM     48  O   VAL A   2      41.957  39.408  27.543  0.00  0.00    -0.273 OA
BRANCH  45  49
ATOM     49  CA  VAL A   2      40.668  40.557  29.228  0.00  0.00    +0.148 C 
BRANCH  49  52
ATOM     50  C   ARG A   1      41.765  42.704  29.644  0.00  0.00    +0.238 C 
ATOM     51  O   ARG A   1      41.748  42.530  30.868  0.00  0.00    -0.274 OA
ATOM     52  N   VAL A   2      41.293  41.808  28.778  0.00  0.00    -0.297 N 
ATOM     53  H   VAL A   2      41.369  41.999  27.759  0.00  0.00    +0.150 HD
BRANCH  50  54
ATOM     54  CA  ARG A   1      42.303  44.014  29.053  0.00  0.00    +0.145 C 
BRANCH  54  55
ATOM     55  N   ARG A   1      41.621  45.133  29.721  0.00  0.00    -0.238 NA
ATOM     56  H   ARG A   1      42.140  45.689  30.430  0.00  0.00    +0.142 HD
ENDBRANCH  54  55
BRANCH  54  57
ATOM     57  CB  ARG A   1      43.816  44.102  29.251  0.00  0.00    +0.030 C 
BRANCH  57  58
ATOM     58  CG  ARG A   1      44.462  45.212  28.451  0.00  0.00    +0.045 C 
BRANCH  58  59
ATOM     59  CD  ARG A   1      45.975  45.130  28.517  0.00  0.00    +0.174 C 
BRANCH  59  60
ATOM     60  NE  ARG A   1      46.505  45.826  29.690  0.00  0.00    -0.265 N 
ATOM     61  HE  ARG A   1      46.490  45.318  30.597  0.00  0.00    +0.259 HD
ATOM     62  CZ  ARG A   1      47.006  47.063  29.684  0.00  0.00    +0.342 C 
ATOM     63  NH2 ARG A   1      47.457  47.593  30.819  0.00  0.00    -0.292 N 
ATOM     64 HH21 ARG A   1      47.417  47.044  31.701  0.00  0.00    +0.255 HD
ATOM     65 HH22 ARG A   1      47.849  48.556  30.823  0.00  0.00    +0.255 HD
ATOM     66  NH1 ARG A   1      47.067  47.769  28.555  0.00  0.00    -0.292 N 
ATOM     67 HH11 ARG A   1      47.460  48.732  28.564  0.00  0.00    +0.255 HD
ATOM     68 HH12 ARG A   1      46.722  47.357  27.665  0.00  0.00    +0.255 HD
ENDBRANCH  59  60
ENDBRANCH  58  59
ENDBRANCH  57  58
ENDBRANCH  54  57
ENDBRANCH  50  54
ENDBRANCH  49  52
BRANCH  49  69
ATOM     69  CB  VAL A   2      39.101  40.550  29.011  0.00  0.00    +0.027 C 
ATOM     70  CG2 VAL A   2      38.441  41.770  29.691  0.00  0.00    +0.002 C 
ATOM     71  CG1 VAL A   2      38.729  40.521  27.531  0.00  0.00    +0.002 C 
ENDBRANCH  49  69
ENDBRANCH  45  49
ENDBRANCH  43  46
ENDBRANCH  39  43
ENDBRANCH   1  41
BRANCH   1  72
ATOM     72  CB  VAL A   4      37.971  35.559  25.418  0.00  0.00    +0.027 C 
ATOM     73  CG2 VAL A   4      37.818  37.104  25.515  0.00  0.00    +0.002 C 
ATOM     74  CG1 VAL A   4      36.637  34.897  25.079  0.00  0.00    +0.002 C 
ENDBRANCH   1  72
TORSDOF 32
REMARK  Name = ../refined-set-2016/3e93/3e93_pocket.pdb
REMARK  262 active torsions:
REMARK  status: ('A' for Active; 'I' for Inactive)
REMARK    1  A    between atoms: _1  and  _3
REMARK    2  A    between atoms: _3  and  _4
REMARK    3  A    between atoms: _3  and  _6
REMARK    4  A    between atoms: _6  and  _7
REMARK    5  A    between atoms: _17  and  _19
REMARK    6  A    between atoms: _19  and  _20
REMARK    7  A    between atoms: _19  and  _22
REMARK    8  A    between atoms: _22  and  _23
REMARK    9  A    between atoms: _26  and  _27
REMARK   10  A    between atoms: _32  and  _34
REMARK   11  A    between atoms: _34  and  _35
REMARK   12  A    between atoms: _34  and  _37
REMARK   13  A    between atoms: _40  and  _42
REMARK   14  A    between atoms: _42  and  _43
REMARK   15  A    between atoms: _45  and  _47
REMARK   16  A    between atoms: _47  and  _48
REMARK   17  A    between atoms: _47  and  _50
REMARK   18  A    between atoms: _50  and  _51
REMARK   19  A    between atoms: _53  and  _55
REMARK   20  A    between atoms: _55  and  _56
REMARK   21  A    between atoms: _55  and  _58
REMARK   22  A    between atoms: _58  and  _59
REMARK   23  A    between atoms: _61  and  _63
REMARK   24  A    between atoms: _63  and  _64
REMARK   25  A    between atoms: _63  and  _66
REMARK   26  A    between atoms: _69  and  _71
REMARK   27  A    between atoms: _71  and  _72
REMARK   28  A    between atoms: _71  and  _74
REMARK   29  A    between atoms: _76  and  _78
REMARK   30  A    between atoms: _78  and  _79
REMARK   31  A    between atoms: _82  and  _84
REMARK   32  A    between atoms: _84  and  _85
REMARK   33  A    between atoms: _88  and  _90
REMARK   34  A    between atoms: _90  and  _91
REMARK   35  A    between atoms: _90  and  _93
REMARK   36  A    between atoms: _93  and  _94
REMARK   37  A    between atoms: _94  and  _95
REMARK   38  A    between atoms: _95  and  _96
REMARK   39  A    between atoms: _105  and  _107
REMARK   40  A    between atoms: _107  and  _108
REMARK   41  A    between atoms: _107  and  _110
REMARK   42  A    between atoms: _113  and  _115
REMARK   43  A    between atoms: _115  and  _116
REMARK   44  A    between atoms: _119  and  _121
REMARK   45  A    between atoms: _121  and  _122
REMARK   46  A    between atoms: _121  and  _124
REMARK   47  A    between atoms: _127  and  _129
REMARK   48  A    between atoms: _129  and  _130
REMARK   49  A    between atoms: _129  and  _132
REMARK   50  A    between atoms: _132  and  _133
REMARK   51  A    between atoms: _133  and  _134
REMARK   52  A    between atoms: _134  and  _135
REMARK   53  A    between atoms: _135  and  _136
REMARK   54  A    between atoms: _140  and  _142
REMARK   55  A    between atoms: _142  and  _143
REMARK   56  A    between atoms: _142  and  _145
REMARK   57  A    between atoms: _145  and  _146
REMARK   58  A    between atoms: _146  and  _147
REMARK   59  A    between atoms: _147  and  _148
REMARK   60  A    between atoms: _148  and  _149
REMARK   61  A    between atoms: _153  and  _155
REMARK   62  A    between atoms: _155  and  _156
REMARK   63  A    between atoms: _155  and  _158
REMARK   64  A    between atoms: _158  and  _159
REMARK   65  A    between atoms: _162  and  _164
REMARK   66  A    between atoms: _164  and  _165
REMARK   67  A    between atoms: _164  and  _167
REMARK   68  A    between atoms: _167  and  _168
REMARK   69  A    between atoms: _168  and  _169
REMARK   70  A    between atoms: _169  and  _170
REMARK   71  A    between atoms: _179  and  _181
REMARK   72  A    between atoms: _181  and  _182
REMARK   73  A    between atoms: _181  and  _184
REMARK   74  A    between atoms: _184  and  _185
REMARK   75  A    between atoms: _185  and  _186
REMARK   76  A    between atoms: _186  and  _187
REMARK   77  A    between atoms: _196  and  _198
REMARK   78  A    between atoms: _198  and  _199
REMARK   79  A    between atoms: _198  and  _201
REMARK   80  A    between atoms: _201  and  _202
REMARK   81  A    between atoms: _202  and  _203
REMARK   82  A    between atoms: _206  and  _208
REMARK   83  A    between atoms: _208  and  _209
REMARK   84  A    between atoms: _208  and  _211
REMARK   85  A    between atoms: _211  and  _212
REMARK   86  A    between atoms: _215  and  _217
REMARK   87  A    between atoms: _217  and  _218
REMARK   88  A    between atoms: _217  and  _220
REMARK   89  A    between atoms: _220  and  _221
REMARK   90  A    between atoms: _224  and  _226
REMARK   91  A    between atoms: _226  and  _227
REMARK   92  A    between atoms: _226  and  _229
REMARK   93  A    between atoms: _229  and  _230
REMARK   94  A    between atoms: _233  and  _235
REMARK   95  A    between atoms: _235  and  _236
REMARK   96  A    between atoms: _235  and  _238
REMARK   97  A    between atoms: _238  and  _239
REMARK   98  A    between atoms: _239  and  _240
REMARK   99  A    between atoms: _242  and  _244
REMARK  100  A    between atoms: _244  and  _245
REMARK  101  A    between atoms: _244  and  _247
REMARK  102  A    between atoms: _247  and  _248
REMARK  103  A    between atoms: _253  and  _255
REMARK  104  A    between atoms: _255  and  _256
REMARK  105  A    between atoms: _255  and  _258
REMARK  106  A    between atoms: _258  and  _259
REMARK  107  A    between atoms: _264  and  _266
REMARK  108  A    between atoms: _266  and  _267
REMARK  109  A    between atoms: _266  and  _269
REMARK  110  A    between atoms: _272  and  _274
REMARK  111  A    between atoms: _274  and  _275
REMARK  112  A    between atoms: _274  and  _277
REMARK  113  A    between atoms: _277  and  _278
REMARK  114  A    between atoms: _281  and  _283
REMARK  115  A    between atoms: _283  and  _284
REMARK  116  A    between atoms: _286  and  _288
REMARK  117  A    between atoms: _288  and  _289
REMARK  118  A    between atoms: _288  and  _291
REMARK  119  A    between atoms: _291  and  _292
REMARK  120  A    between atoms: _295  and  _297
REMARK  121  A    between atoms: _297  and  _298
REMARK  122  A    between atoms: _297  and  _300
REMARK  123  A    between atoms: _300  and  _301
REMARK  124  A    between atoms: _304  and  _306
REMARK  125  A    between atoms: _306  and  _307
REMARK  126  A    between atoms: _306  and  _309
REMARK  127  A    between atoms: _309  and  _310
REMARK  128  A    between atoms: _313  and  _315
REMARK  129  A    between atoms: _315  and  _316
REMARK  130  A    between atoms: _315  and  _318
REMARK  131  A    between atoms: _318  and  _319
REMARK  132  A    between atoms: _324  and  _325
REMARK  133  A    between atoms: _327  and  _329
REMARK  134  A    between atoms: _329  and  _330
REMARK  135  A    between atoms: _329  and  _332
REMARK  136  A    between atoms: _332  and  _333
REMARK  137  A    between atoms: _336  and  _338
REMARK  138  A    between atoms: _338  and  _339
REMARK  139  A    between atoms: _338  and  _341
REMARK  140  A    between atoms: _344  and  _346
REMARK  141  A    between atoms: _346  and  _347
REMARK  142  A    between atoms: _346  and  _349
REMARK  143  A    between atoms: _349  and  _350
REMARK  144  A    between atoms: _353  and  _355
REMARK  145  A    between atoms: _355  and  _356
REMARK  146  A    between atoms: _355  and  _358
REMARK  147  A    between atoms: _358  and  _359
REMARK  148  A    between atoms: _364  and  _366
REMARK  149  A    between atoms: _366  and  _367
REMARK  150  A    between atoms: _366  and  _369
REMARK  151  A    between atoms: _369  and  _370
REMARK  152  A    between atoms: _373  and  _375
REMARK  153  A    between atoms: _375  and  _376
REMARK  154  A    between atoms: _375  and  _378
REMARK  155  A    between atoms: _378  and  _379
REMARK  156  A    between atoms: _379  and  _380
REMARK  157  A    between atoms: _382  and  _384
REMARK  158  A    between atoms: _384  and  _385
REMARK  159  A    between atoms: _387  and  _389
REMARK  160  A    between atoms: _389  and  _390
REMARK  161  A    between atoms: _393  and  _395
REMARK  162  A    between atoms: _395  and  _396
REMARK  163  A    between atoms: _395  and  _398
REMARK  164  A    between atoms: _398  and  _399
REMARK  165  A    between atoms: _402  and  _404
REMARK  166  A    between atoms: _404  and  _405
REMARK  167  A    between atoms: _404  and  _407
REMARK  168  A    between atoms: _407  and  _408
REMARK  169  A    between atoms: _413  and  _415
REMARK  170  A    between atoms: _415  and  _416
REMARK  171  A    between atoms: _418  and  _420
REMARK  172  A    between atoms: _420  and  _421
REMARK  173  A    between atoms: _420  and  _423
REMARK  174  A    between atoms: _423  and  _424
REMARK  175  A    between atoms: _427  and  _429
REMARK  176  A    between atoms: _429  and  _430
REMARK  177  A    between atoms: _429  and  _432
REMARK  178  A    between atoms: _432  and  _433
REMARK  179  A    between atoms: _438  and  _439
REMARK  180  A    between atoms: _441  and  _443
REMARK  181  A    between atoms: _443  and  _444
REMARK  182  A    between atoms: _443  and  _446
REMARK  183  A    between atoms: _446  and  _447
REMARK  184  A    between atoms: _450  and  _452
REMARK  185  A    between atoms: _452  and  _453
REMARK  186  A    between atoms: _452  and  _455
REMARK  187  A    between atoms: _455  and  _456
REMARK  188  A    between atoms: _461  and  _463
REMARK  189  A    between atoms: _463  and  _464
REMARK  190  A    between atoms: _467  and  _469
REMARK  191  A    between atoms: _469  and  _470
REMARK  192  A    between atoms: _469  and  _472
REMARK  193  A    between atoms: _472  and  _473
REMARK  194  A    between atoms: _476  and  _478
REMARK  195  A    between atoms: _478  and  _479
REMARK  196  A    between atoms: _478  and  _481
REMARK  197  A    between atoms: _481  and  _482
REMARK  198  A    between atoms: _485  and  _487
REMARK  199  A    between atoms: _487  and  _488
REMARK  200  A    between atoms: _487  and  _490
REMARK  201  A    between atoms: _490  and  _491
REMARK  202  A    between atoms: _496  and  _498
REMARK  203  A    between atoms: _498  and  _499
REMARK  204  A    between atoms: _498  and  _501
REMARK  205  A    between atoms: _501  and  _502
REMARK  206  A    between atoms: _502  and  _503
REMARK  207  A    between atoms: _503  and  _504
REMARK  208  A    between atoms: _513  and  _515
REMARK  209  A    between atoms: _515  and  _516
REMARK  210  A    between atoms: _515  and  _518
REMARK  211  A    between atoms: _518  and  _519
REMARK  212  A    between atoms: _522  and  _524
REMARK  213  A    between atoms: _524  and  _525
REMARK  214  A    between atoms: _524  and  _527
REMARK  215  A    between atoms: _527  and  _528
REMARK  216  A    between atoms: _531  and  _533
REMARK  217  A    between atoms: _533  and  _534
REMARK  218  A    between atoms: _533  and  _536
REMARK  219  A    between atoms: _536  and  _537
REMARK  220  A    between atoms: _539  and  _541
REMARK  221  A    between atoms: _541  and  _542
REMARK  222  A    between atoms: _541  and  _544
REMARK  223  A    between atoms: _544  and  _545
REMARK  224  A    between atoms: _550  and  _552
REMARK  225  A    between atoms: _552  and  _553
REMARK  226  A    between atoms: _552  and  _555
REMARK  227  A    between atoms: _555  and  _556
REMARK  228  A    between atoms: _559  and  _561
REMARK  229  A    between atoms: _561  and  _562
REMARK  230  A    between atoms: _565  and  _567
REMARK  231  A    between atoms: _567  and  _568
REMARK  232  A    between atoms: _567  and  _570
REMARK  233  A    between atoms: _570  and  _571
REMARK  234  A    between atoms: _571  and  _572
REMARK  235  A    between atoms: _572  and  _573
REMARK  236  A    between atoms: _573  and  _574
REMARK  237  A    between atoms: _578  and  _580
REMARK  238  A    between atoms: _580  and  _581
REMARK  239  A    between atoms: _580  and  _583
REMARK  240  A    between atoms: _583  and  _584
REMARK  241  A    between atoms: _587  and  _589
REMARK  242  A    between atoms: _589  and  _590
REMARK  243  A    between atoms: _589  and  _592
REMARK  244  A    between atoms: _592  and  _593
REMARK  245  A    between atoms: _596  and  _598
REMARK  246  A    between atoms: _598  and  _599
REMARK  247  A    between atoms: _598  and  _601
REMARK  248  A    between atoms: _601  and  _602
REMARK  249  A    between atoms: _605  and  _607
REMARK  250  A    between atoms: _607  and  _608
REMARK  251  A    between atoms: _607  and  _610
REMARK  252  A    between atoms: _610  and  _611
REMARK  253  A    between atoms: _617  and  _619
REMARK  254  A    between atoms: _619  and  _620
REMARK  255  A    between atoms: _622  and  _624
REMARK  256  A    between atoms: _624  and  _625
REMARK  257  A    between atoms: _624  and  _627
REMARK  258  A    between atoms: _627  and  _628
REMARK  259  A    between atoms: _631  and  _633
REMARK  260  A    between atoms: _633  and  _634
REMARK  261  A    between atoms: _633  and  _636
REMARK  262  A    between atoms: _636  and  _637
REMARK                            x       y       z     vdW  Elec       q    Type
REMARK                         _______ _______ _______ _____ _____    ______ ____
ROOT
ATOM      1  NE  ARG A   1      37.647  18.648  33.210  0.00  0.00    -0.265 N 
ATOM      2  CZ  ARG A   1      38.776  18.957  33.841  0.00  0.00    +0.342 C 
ATOM      3  NH2 ARG A   1      39.433  18.023  34.521  0.00  0.00    -0.292 N 
ATOM      4 HH21 ARG A   1      40.316  18.264  35.015  0.00  0.00    +0.255 HD
ATOM      5 HH22 ARG A   1      39.064  17.051  34.559  0.00  0.00    +0.255 HD
ATOM      6  NH1 ARG A   1      39.250  20.200  33.787  0.00  0.00    -0.292 N 
ATOM      7 HH11 ARG A   1      40.133  20.442  34.280  0.00  0.00    +0.255 HD
ATOM      8 HH12 ARG A   1      38.737  20.929  33.251  0.00  0.00    +0.255 HD
ATOM      9  HE  ARG A   1      37.305  17.668  33.270  0.00  0.00    +0.259 HD
ENDROOT
BRANCH   1  10
ATOM     10  CD  ARG A   1      36.860  19.604  32.439  0.00  0.00    +0.174 C 
BRANCH  10  11
ATOM     11  CG  ARG A   1      35.663  20.098  33.201  0.00  0.00    +0.045 C 
BRANCH  11  12
ATOM     12  CB  ARG A   1      34.501  19.105  33.143  0.00  0.00    +0.029 C 
BRANCH  12  13
ATOM     13  CA  ARG A   1      33.263  19.628  33.868  0.00  0.00    +0.133 C 
BRANCH  13  14
ATOM     14  N   ARG A   1      32.121  18.744  33.666  0.00  0.00    -0.239 NA
ATOM     15  H   ARG A   1      32.244  17.906  33.063  0.00  0.00    +0.142 HD
ENDBRANCH  13  14
BRANCH  13  16
ATOM     16  C   ARG A   1      33.004  21.071  33.440  0.00  0.00    +0.224 C 
ATOM     17  O   ARG A   1      33.415  22.018  34.140  0.00  0.00    -0.287 OA
ENDBRANCH  13  16
ENDBRANCH  12  13
ENDBRANCH  11  12
ENDBRANCH  10  11
ENDBRANCH   1  10
TORSDOF 6
REMARK  Name = ../refined-set-2016/3e93/3e93_pocket.pdb
REMARK  262 active torsions:
REMARK  status: ('A' for Active; 'I' for Inactive)
REMARK    1  A    between atoms: _1  and  _3
REMARK    2  A    between atoms: _3  and  _4
REMARK    3  A    between atoms: _3  and  _6
REMARK    4  A    between atoms: _6  and  _7
REMARK    5  A    between atoms: _17  and  _19
REMARK    6  A    between atoms: _19  and  _20
REMARK    7  A    between atoms: _19  and  _22
REMARK    8  A    between atoms: _22  and  _23
REMARK    9  A    between atoms: _26  and  _27
REMARK   10  A    between atoms: _32  and  _34
REMARK   11  A    between atoms: _34  and  _35
REMARK   12  A    between atoms: _34  and  _37
REMARK   13  A    between atoms: _40  and  _42
REMARK   14  A    between atoms: _42  and  _43
REMARK   15  A    between atoms: _45  and  _47
REMARK   16  A    between atoms: _47  and  _48
REMARK   17  A    between atoms: _47  and  _50
REMARK   18  A    between atoms: _50  and  _51
REMARK   19  A    between atoms: _53  and  _55
REMARK   20  A    between atoms: _55  and  _56
REMARK   21  A    between atoms: _55  and  _58
REMARK   22  A    between atoms: _58  and  _59
REMARK   23  A    between atoms: _61  and  _63
REMARK   24  A    between atoms: _63  and  _64
REMARK   25  A    between atoms: _63  and  _66
REMARK   26  A    between atoms: _69  and  _71
REMARK   27  A    between atoms: _71  and  _72
REMARK   28  A    between atoms: _71  and  _74
REMARK   29  A    between atoms: _76  and  _78
REMARK   30  A    between atoms: _78  and  _79
REMARK   31  A    between atoms: _82  and  _84
REMARK   32  A    between atoms: _84  and  _85
REMARK   33  A    between atoms: _88  and  _90
REMARK   34  A    between atoms: _90  and  _91
REMARK   35  A    between atoms: _90  and  _93
REMARK   36  A    between atoms: _93  and  _94
REMARK   37  A    between atoms: _94  and  _95
REMARK   38  A    between atoms: _95  and  _96
REMARK   39  A    between atoms: _105  and  _107
REMARK   40  A    between atoms: _107  and  _108
REMARK   41  A    between atoms: _107  and  _110
REMARK   42  A    between atoms: _113  and  _115
REMARK   43  A    between atoms: _115  and  _116
REMARK   44  A    between atoms: _119  and  _121
REMARK   45  A    between atoms: _121  and  _122
REMARK   46  A    between atoms: _121  and  _124
REMARK   47  A    between atoms: _127  and  _129
REMARK   48  A    between atoms: _129  and  _130
REMARK   49  A    between atoms: _129  and  _132
REMARK   50  A    between atoms: _132  and  _133
REMARK   51  A    between atoms: _133  and  _134
REMARK   52  A    between atoms: _134  and  _135
REMARK   53  A    between atoms: _135  and  _136
REMARK   54  A    between atoms: _140  and  _142
REMARK   55  A    between atoms: _142  and  _143
REMARK   56  A    between atoms: _142  and  _145
REMARK   57  A    between atoms: _145  and  _146
REMARK   58  A    between atoms: _146  and  _147
REMARK   59  A    between atoms: _147  and  _148
REMARK   60  A    between atoms: _148  and  _149
REMARK   61  A    between atoms: _153  and  _155
REMARK   62  A    between atoms: _155  and  _156
REMARK   63  A    between atoms: _155  and  _158
REMARK   64  A    between atoms: _158  and  _159
REMARK   65  A    between atoms: _162  and  _164
REMARK   66  A    between atoms: _164  and  _165
REMARK   67  A    between atoms: _164  and  _167
REMARK   68  A    between atoms: _167  and  _168
REMARK   69  A    between atoms: _168  and  _169
REMARK   70  A    between atoms: _169  and  _170
REMARK   71  A    between atoms: _179  and  _181
REMARK   72  A    between atoms: _181  and  _182
REMARK   73  A    between atoms: _181  and  _184
REMARK   74  A    between atoms: _184  and  _185
REMARK   75  A    between atoms: _185  and  _186
REMARK   76  A    between atoms: _186  and  _187
REMARK   77  A    between atoms: _196  and  _198
REMARK   78  A    between atoms: _198  and  _199
REMARK   79  A    between atoms: _198  and  _201
REMARK   80  A    between atoms: _201  and  _202
REMARK   81  A    between atoms: _202  and  _203
REMARK   82  A    between atoms: _206  and  _208
REMARK   83  A    between atoms: _208  and  _209
REMARK   84  A    between atoms: _208  and  _211
REMARK   85  A    between atoms: _211  and  _212
REMARK   86  A    between atoms: _215  and  _217
REMARK   87  A    between atoms: _217  and  _218
REMARK   88  A    between atoms: _217  and  _220
REMARK   89  A    between atoms: _220  and  _221
REMARK   90  A    between atoms: _224  and  _226
REMARK   91  A    between atoms: _226  and  _227
REMARK   92  A    between atoms: _226  and  _229
REMARK   93  A    between atoms: _229  and  _230
REMARK   94  A    between atoms: _233  and  _235
REMARK   95  A    between atoms: _235  and  _236
REMARK   96  A    between atoms: _235  and  _238
REMARK   97  A    between atoms: _238  and  _239
REMARK   98  A    between atoms: _239  and  _240
REMARK   99  A    between atoms: _242  and  _244
REMARK  100  A    between atoms: _244  and  _245
REMARK  101  A    between atoms: _244  and  _247
REMARK  102  A    between atoms: _247  and  _248
REMARK  103  A    between atoms: _253  and  _255
REMARK  104  A    between atoms: _255  and  _256
REMARK  105  A    between atoms: _255  and  _258
REMARK  106  A    between atoms: _258  and  _259
REMARK  107  A    between atoms: _264  and  _266
REMARK  108  A    between atoms: _266  and  _267
REMARK  109  A    between atoms: _266  and  _269
REMARK  110  A    between atoms: _272  and  _274
REMARK  111  A    between atoms: _274  and  _275
REMARK  112  A    between atoms: _274  and  _277
REMARK  113  A    between atoms: _277  and  _278
REMARK  114  A    between atoms: _281  and  _283
REMARK  115  A    between atoms: _283  and  _284
REMARK  116  A    between atoms: _286  and  _288
REMARK  117  A    between atoms: _288  and  _289
REMARK  118  A    between atoms: _288  and  _291
REMARK  119  A    between atoms: _291  and  _292
REMARK  120  A    between atoms: _295  and  _297
REMARK  121  A    between atoms: _297  and  _298
REMARK  122  A    between atoms: _297  and  _300
REMARK  123  A    between atoms: _300  and  _301
REMARK  124  A    between atoms: _304  and  _306
REMARK  125  A    between atoms: _306  and  _307
REMARK  126  A    between atoms: _306  and  _309
REMARK  127  A    between atoms: _309  and  _310
REMARK  128  A    between atoms: _313  and  _315
REMARK  129  A    between atoms: _315  and  _316
REMARK  130  A    between atoms: _315  and  _318
REMARK  131  A    between atoms: _318  and  _319
REMARK  132  A    between atoms: _324  and  _325
REMARK  133  A    between atoms: _327  and  _329
REMARK  134  A    between atoms: _329  and  _330
REMARK  135  A    between atoms: _329  and  _332
REMARK  136  A    between atoms: _332  and  _333
REMARK  137  A    between atoms: _336  and  _338
REMARK  138  A    between atoms: _338  and  _339
REMARK  139  A    between atoms: _338  and  _341
REMARK  140  A    between atoms: _344  and  _346
REMARK  141  A    between atoms: _346  and  _347
REMARK  142  A    between atoms: _346  and  _349
REMARK  143  A    between atoms: _349  and  _350
REMARK  144  A    between atoms: _353  and  _355
REMARK  145  A    between atoms: _355  and  _356
REMARK  146  A    between atoms: _355  and  _358
REMARK  147  A    between atoms: _358  and  _359
REMARK  148  A    between atoms: _364  and  _366
REMARK  149  A    between atoms: _366  and  _367
REMARK  150  A    between atoms: _366  and  _369
REMARK  151  A    between atoms: _369  and  _370
REMARK  152  A    between atoms: _373  and  _375
REMARK  153  A    between atoms: _375  and  _376
REMARK  154  A    between atoms: _375  and  _378
REMARK  155  A    between atoms: _378  and  _379
REMARK  156  A    between atoms: _379  and  _380
REMARK  157  A    between atoms: _382  and  _384
REMARK  158  A    between atoms: _384  and  _385
REMARK  159  A    between atoms: _387  and  _389
REMARK  160  A    between atoms: _389  and  _390
REMARK  161  A    between atoms: _393  and  _395
REMARK  162  A    between atoms: _395  and  _396
REMARK  163  A    between atoms: _395  and  _398
REMARK  164  A    between atoms: _398  and  _399
REMARK  165  A    between atoms: _402  and  _404
REMARK  166  A    between atoms: _404  and  _405
REMARK  167  A    between atoms: _404  and  _407
REMARK  168  A    between atoms: _407  and  _408
REMARK  169  A    between atoms: _413  and  _415
REMARK  170  A    between atoms: _415  and  _416
REMARK  171  A    between atoms: _418  and  _420
REMARK  172  A    between atoms: _420  and  _421
REMARK  173  A    between atoms: _420  and  _423
REMARK  174  A    between atoms: _423  and  _424
REMARK  175  A    between atoms: _427  and  _429
REMARK  176  A    between atoms: _429  and  _430
REMARK  177  A    between atoms: _429  and  _432
REMARK  178  A    between atoms: _432  and  _433
REMARK  179  A    between atoms: _438  and  _439
REMARK  180  A    between atoms: _441  and  _443
REMARK  181  A    between atoms: _443  and  _444
REMARK  182  A    between atoms: _443  and  _446
REMARK  183  A    between atoms: _446  and  _447
REMARK  184  A    between atoms: _450  and  _452
REMARK  185  A    between atoms: _452  and  _453
REMARK  186  A    between atoms: _452  and  _455
REMARK  187  A    between atoms: _455  and  _456
REMARK  188  A    between atoms: _461  and  _463
REMARK  189  A    between atoms: _463  and  _464
REMARK  190  A    between atoms: _467  and  _469
REMARK  191  A    between atoms: _469  and  _470
REMARK  192  A    between atoms: _469  and  _472
REMARK  193  A    between atoms: _472  and  _473
REMARK  194  A    between atoms: _476  and  _478
REMARK  195  A    between atoms: _478  and  _479
REMARK  196  A    between atoms: _478  and  _481
REMARK  197  A    between atoms: _481  and  _482
REMARK  198  A    between atoms: _485  and  _487
REMARK  199  A    between atoms: _487  and  _488
REMARK  200  A    between atoms: _487  and  _490
REMARK  201  A    between atoms: _490  and  _491
REMARK  202  A    between atoms: _496  and  _498
REMARK  203  A    between atoms: _498  and  _499
REMARK  204  A    between atoms: _498  and  _501
REMARK  205  A    between atoms: _501  and  _502
REMARK  206  A    between atoms: _502  and  _503
REMARK  207  A    between atoms: _503  and  _504
REMARK  208  A    between atoms: _513  and  _515
REMARK  209  A    between atoms: _515  and  _516
REMARK  210  A    between atoms: _515  and  _518
REMARK  211  A    between atoms: _518  and  _519
REMARK  212  A    between atoms: _522  and  _524
REMARK  213  A    between atoms: _524  and  _525
REMARK  214  A    between atoms: _524  and  _527
REMARK  215  A    between atoms: _527  and  _528
REMARK  216  A    between atoms: _531  and  _533
REMARK  217  A    between atoms: _533  and  _534
REMARK  218  A    between atoms: _533  and  _536
REMARK  219  A    between atoms: _536  and  _537
REMARK  220  A    between atoms: _539  and  _541
REMARK  221  A    between atoms: _541  and  _542
REMARK  222  A    between atoms: _541  and  _544
REMARK  223  A    between atoms: _544  and  _545
REMARK  224  A    between atoms: _550  and  _552
REMARK  225  A    between atoms: _552  and  _553
REMARK  226  A    between atoms: _552  and  _555
REMARK  227  A    between atoms: _555  and  _556
REMARK  228  A    between atoms: _559  and  _561
REMARK  229  A    between atoms: _561  and  _562
REMARK  230  A    between atoms: _565  and  _567
REMARK  231  A    between atoms: _567  and  _568
REMARK  232  A    between atoms: _567  and  _570
REMARK  233  A    between atoms: _570  and  _571
REMARK  234  A    between atoms: _571  and  _572
REMARK  235  A    between atoms: _572  and  _573
REMARK  236  A    between atoms: _573  and  _574
REMARK  237  A    between atoms: _578  and  _580
REMARK  238  A    between atoms: _580  and  _581
REMARK  239  A    between atoms: _580  and  _583
REMARK  240  A    between atoms: _583  and  _584
REMARK  241  A    between atoms: _587  and  _589
REMARK  242  A    between atoms: _589  and  _590
REMARK  243  A    between atoms: _589  and  _592
REMARK  244  A    between atoms: _592  and  _593
REMARK  245  A    between atoms: _596  and  _598
REMARK  246  A    between atoms: _598  and  _599
REMARK  247  A    between atoms: _598  and  _601
REMARK  248  A    between atoms: _601  and  _602
REMARK  249  A    between atoms: _605  and  _607
REMARK  250  A    between atoms: _607  and  _608
REMARK  251  A    between atoms: _607  and  _610
REMARK  252  A    between atoms: _610  and  _611
REMARK  253  A    between atoms: _617  and  _619
REMARK  254  A    between atoms: _619  and  _620
REMARK  255  A    between atoms: _622  and  _624
REMARK  256  A    between atoms: _624  and  _625
REMARK  257  A    between atoms: _624  and  _627
REMARK  258  A    between atoms: _627  and  _628
REMARK  259  A    between atoms: _631  and  _633
REMARK  260  A    between atoms: _633  and  _634
REMARK  261  A    between atoms: _633  and  _636
REMARK  262  A    between atoms: _636  and  _637
REMARK                            x       y       z     vdW  Elec       q    Type
REMARK                         _______ _______ _______ _____ _____    ______ ____
ROOT
ATOM      1  C   ARG A   1      32.293  23.958  37.146  0.00  0.00    +0.238 C 
ATOM      2  O   ARG A   1      32.221  24.757  38.107  0.00  0.00    -0.274 OA
ATOM      3  N   GLU A   2      33.088  24.159  36.093  0.00  0.00    -0.297 N 
ATOM      4  H   GLU A   2      33.155  23.425  35.359  0.00  0.00    +0.150 HD
ENDROOT
BRANCH   1   5
ATOM      5  CA  ARG A   1      31.466  22.673  37.149  0.00  0.00    +0.145 C 
BRANCH   5   6
ATOM      6  N   ARG A   1      30.628  22.462  35.947  0.00  0.00    -0.238 NA
ATOM      7  H   ARG A   1      30.727  21.567  35.426  0.00  0.00    +0.142 HD
ENDBRANCH   5   6
BRANCH   5   8
ATOM      8  CB  ARG A   1      32.392  21.482  37.382  0.00  0.00    +0.030 C 
BRANCH   8   9
ATOM      9  CG  ARG A   1      33.312  21.653  38.593  0.00  0.00    +0.045 C 
BRANCH   9  10
ATOM     10  CD  ARG A   1      34.295  20.500  38.711  0.00  0.00    +0.174 C 
BRANCH  10  11
ATOM     11  NE  ARG A   1      33.611  19.245  38.999  0.00  0.00    -0.265 N 
ATOM     12  HE  ARG A   1      33.076  19.184  39.889  0.00  0.00    +0.259 HD
ATOM     13  CZ  ARG A   1      33.617  18.172  38.213  0.00  0.00    +0.342 C 
ATOM     14  NH2 ARG A   1      32.946  17.087  38.582  0.00  0.00    -0.292 N 
ATOM     15 HH21 ARG A   1      32.421  17.081  39.480  0.00  0.00    +0.255 HD
ATOM     16 HH22 ARG A   1      32.946  16.244  37.973  0.00  0.00    +0.255 HD
ATOM     17  NH1 ARG A   1      34.284  18.181  37.066  0.00  0.00    -0.292 N 
ATOM     18 HH11 ARG A   1      34.807  19.031  36.776  0.00  0.00    +0.255 HD
ATOM     19 HH12 ARG A   1      34.283  17.338  36.457  0.00  0.00    +0.255 HD
ENDBRANCH  10  11
ENDBRANCH   9  10
ENDBRANCH   8   9
ENDBRANCH   5   8
ENDBRANCH   1   5
BRANCH   3  20
ATOM     20  CA  GLU A   2      33.867  25.389  35.949  0.00  0.00    +0.149 C 
BRANCH  20  21
ATOM     21  C   GLU A   2      33.015  26.654  35.899  0.00  0.00    +0.241 C 
ATOM     22  O   GLU A   2      33.332  27.643  36.541  0.00  0.00    -0.273 OA
ATOM     23  N   LEU A   3      31.932  26.641  35.137  0.00  0.00    -0.298 N 
ATOM     24  H   LEU A   3      31.698  25.797  34.576  0.00  0.00    +0.150 HD
BRANCH  23  25
ATOM     25  CA  LEU A   3      31.069  27.816  35.088  0.00  0.00    +0.137 C 
BRANCH  25  26
ATOM     26  C   LEU A   3      30.424  28.149  36.445  0.00  0.00    +0.227 C 
ATOM     27  O   LEU A   3      30.415  29.323  36.869  0.00  0.00    -0.286 OA
ENDBRANCH  25  26
BRANCH  25  28
ATOM     28  CB  LEU A   3      30.003  27.684  33.979  0.00  0.00    +0.028 C 
BRANCH  28  29
ATOM     29  CG  LEU A   3      29.024  28.856  33.867  0.00  0.00    +0.002 C 
ATOM     30  CD2 LEU A   3      29.768  30.209  33.693  0.00  0.00    +0.000 C 
ATOM     31  CD1 LEU A   3      27.976  28.616  32.759  0.00  0.00    +0.000 C 
ENDBRANCH  28  29
ENDBRANCH  25  28
ENDBRANCH  23  25
ENDBRANCH  20  21
BRANCH  20  32
ATOM     32  CB  GLU A   2      34.798  25.336  34.728  0.00  0.00    +0.041 C 
BRANCH  32  33
ATOM     33  CG  GLU A   2      35.627  26.634  34.560  0.00  0.00    +0.116 C 
BRANCH  33  34
ATOM     34  CD  GLU A   2      36.675  26.561  33.446  0.00  0.00    +0.365 C 
ATOM     35  OE2 GLU A   2      37.635  27.358  33.463  0.00  0.00    -0.246 OA
ATOM     36  OE1 GLU A   2      36.524  25.710  32.550  0.00  0.00    -0.246 OA
ENDBRANCH  33  34
ENDBRANCH  32  33
ENDBRANCH  20  32
ENDBRANCH   3  20
TORSDOF 15
REMARK  Name = ../refined-set-2016/3e93/3e93_pocket.pdb
REMARK  262 active torsions:
REMARK  status: ('A' for Active; 'I' for Inactive)
REMARK    1  A    between atoms: _1  and  _3
REMARK    2  A    between atoms: _3  and  _4
REMARK    3  A    between atoms: _3  and  _6
REMARK    4  A    between atoms: _6  and  _7
REMARK    5  A    between atoms: _17  and  _19
REMARK    6  A    between atoms: _19  and  _20
REMARK    7  A    between atoms: _19  and  _22
REMARK    8  A    between atoms: _22  and  _23
REMARK    9  A    between atoms: _26  and  _27
REMARK   10  A    between atoms: _32  and  _34
REMARK   11  A    between atoms: _34  and  _35
REMARK   12  A    between atoms: _34  and  _37
REMARK   13  A    between atoms: _40  and  _42
REMARK   14  A    between atoms: _42  and  _43
REMARK   15  A    between atoms: _45  and  _47
REMARK   16  A    between atoms: _47  and  _48
REMARK   17  A    between atoms: _47  and  _50
REMARK   18  A    between atoms: _50  and  _51
REMARK   19  A    between atoms: _53  and  _55
REMARK   20  A    between atoms: _55  and  _56
REMARK   21  A    between atoms: _55  and  _58
REMARK   22  A    between atoms: _58  and  _59
REMARK   23  A    between atoms: _61  and  _63
REMARK   24  A    between atoms: _63  and  _64
REMARK   25  A    between atoms: _63  and  _66
REMARK   26  A    between atoms: _69  and  _71
REMARK   27  A    between atoms: _71  and  _72
REMARK   28  A    between atoms: _71  and  _74
REMARK   29  A    between atoms: _76  and  _78
REMARK   30  A    between atoms: _78  and  _79
REMARK   31  A    between atoms: _82  and  _84
REMARK   32  A    between atoms: _84  and  _85
REMARK   33  A    between atoms: _88  and  _90
REMARK   34  A    between atoms: _90  and  _91
REMARK   35  A    between atoms: _90  and  _93
REMARK   36  A    between atoms: _93  and  _94
REMARK   37  A    between atoms: _94  and  _95
REMARK   38  A    between atoms: _95  and  _96
REMARK   39  A    between atoms: _105  and  _107
REMARK   40  A    between atoms: _107  and  _108
REMARK   41  A    between atoms: _107  and  _110
REMARK   42  A    between atoms: _113  and  _115
REMARK   43  A    between atoms: _115  and  _116
REMARK   44  A    between atoms: _119  and  _121
REMARK   45  A    between atoms: _121  and  _122
REMARK   46  A    between atoms: _121  and  _124
REMARK   47  A    between atoms: _127  and  _129
REMARK   48  A    between atoms: _129  and  _130
REMARK   49  A    between atoms: _129  and  _132
REMARK   50  A    between atoms: _132  and  _133
REMARK   51  A    between atoms: _133  and  _134
REMARK   52  A    between atoms: _134  and  _135
REMARK   53  A    between atoms: _135  and  _136
REMARK   54  A    between atoms: _140  and  _142
REMARK   55  A    between atoms: _142  and  _143
REMARK   56  A    between atoms: _142  and  _145
REMARK   57  A    between atoms: _145  and  _146
REMARK   58  A    between atoms: _146  and  _147
REMARK   59  A    between atoms: _147  and  _148
REMARK   60  A    between atoms: _148  and  _149
REMARK   61  A    between atoms: _153  and  _155
REMARK   62  A    between atoms: _155  and  _156
REMARK   63  A    between atoms: _155  and  _158
REMARK   64  A    between atoms: _158  and  _159
REMARK   65  A    between atoms: _162  and  _164
REMARK   66  A    between atoms: _164  and  _165
REMARK   67  A    between atoms: _164  and  _167
REMARK   68  A    between atoms: _167  and  _168
REMARK   69  A    between atoms: _168  and  _169
REMARK   70  A    between atoms: _169  and  _170
REMARK   71  A    between atoms: _179  and  _181
REMARK   72  A    between atoms: _181  and  _182
REMARK   73  A    between atoms: _181  and  _184
REMARK   74  A    between atoms: _184  and  _185
REMARK   75  A    between atoms: _185  and  _186
REMARK   76  A    between atoms: _186  and  _187
REMARK   77  A    between atoms: _196  and  _198
REMARK   78  A    between atoms: _198  and  _199
REMARK   79  A    between atoms: _198  and  _201
REMARK   80  A    between atoms: _201  and  _202
REMARK   81  A    between atoms: _202  and  _203
REMARK   82  A    between atoms: _206  and  _208
REMARK   83  A    between atoms: _208  and  _209
REMARK   84  A    between atoms: _208  and  _211
REMARK   85  A    between atoms: _211  and  _212
REMARK   86  A    between atoms: _215  and  _217
REMARK   87  A    between atoms: _217  and  _218
REMARK   88  A    between atoms: _217  and  _220
REMARK   89  A    between atoms: _220  and  _221
REMARK   90  A    between atoms: _224  and  _226
REMARK   91  A    between atoms: _226  and  _227
REMARK   92  A    between atoms: _226  and  _229
REMARK   93  A    between atoms: _229  and  _230
REMARK   94  A    between atoms: _233  and  _235
REMARK   95  A    between atoms: _235  and  _236
REMARK   96  A    between atoms: _235  and  _238
REMARK   97  A    between atoms: _238  and  _239
REMARK   98  A    between atoms: _239  and  _240
REMARK   99  A    between atoms: _242  and  _244
REMARK  100  A    between atoms: _244  and  _245
REMARK  101  A    between atoms: _244  and  _247
REMARK  102  A    between atoms: _247  and  _248
REMARK  103  A    between atoms: _253  and  _255
REMARK  104  A    between atoms: _255  and  _256
REMARK  105  A    between atoms: _255  and  _258
REMARK  106  A    between atoms: _258  and  _259
REMARK  107  A    between atoms: _264  and  _266
REMARK  108  A    between atoms: _266  and  _267
REMARK  109  A    between atoms: _266  and  _269
REMARK  110  A    between atoms: _272  and  _274
REMARK  111  A    between atoms: _274  and  _275
REMARK  112  A    between atoms: _274  and  _277
REMARK  113  A    between atoms: _277  and  _278
REMARK  114  A    between atoms: _281  and  _283
REMARK  115  A    between atoms: _283  and  _284
REMARK  116  A    between atoms: _286  and  _288
REMARK  117  A    between atoms: _288  and  _289
REMARK  118  A    between atoms: _288  and  _291
REMARK  119  A    between atoms: _291  and  _292
REMARK  120  A    between atoms: _295  and  _297
REMARK  121  A    between atoms: _297  and  _298
REMARK  122  A    between atoms: _297  and  _300
REMARK  123  A    between atoms: _300  and  _301
REMARK  124  A    between atoms: _304  and  _306
REMARK  125  A    between atoms: _306  and  _307
REMARK  126  A    between atoms: _306  and  _309
REMARK  127  A    between atoms: _309  and  _310
REMARK  128  A    between atoms: _313  and  _315
REMARK  129  A    between atoms: _315  and  _316
REMARK  130  A    between atoms: _315  and  _318
REMARK  131  A    between atoms: _318  and  _319
REMARK  132  A    between atoms: _324  and  _325
REMARK  133  A    between atoms: _327  and  _329
REMARK  134  A    between atoms: _329  and  _330
REMARK  135  A    between atoms: _329  and  _332
REMARK  136  A    between atoms: _332  and  _333
REMARK  137  A    between atoms: _336  and  _338
REMARK  138  A    between atoms: _338  and  _339
REMARK  139  A    between atoms: _338  and  _341
REMARK  140  A    between atoms: _344  and  _346
REMARK  141  A    between atoms: _346  and  _347
REMARK  142  A    between atoms: _346  and  _349
REMARK  143  A    between atoms: _349  and  _350
REMARK  144  A    between atoms: _353  and  _355
REMARK  145  A    between atoms: _355  and  _356
REMARK  146  A    between atoms: _355  and  _358
REMARK  147  A    between atoms: _358  and  _359
REMARK  148  A    between atoms: _364  and  _366
REMARK  149  A    between atoms: _366  and  _367
REMARK  150  A    between atoms: _366  and  _369
REMARK  151  A    between atoms: _369  and  _370
REMARK  152  A    between atoms: _373  and  _375
REMARK  153  A    between atoms: _375  and  _376
REMARK  154  A    between atoms: _375  and  _378
REMARK  155  A    between atoms: _378  and  _379
REMARK  156  A    between atoms: _379  and  _380
REMARK  157  A    between atoms: _382  and  _384
REMARK  158  A    between atoms: _384  and  _385
REMARK  159  A    between atoms: _387  and  _389
REMARK  160  A    between atoms: _389  and  _390
REMARK  161  A    between atoms: _393  and  _395
REMARK  162  A    between atoms: _395  and  _396
REMARK  163  A    between atoms: _395  and  _398
REMARK  164  A    between atoms: _398  and  _399
REMARK  165  A    between atoms: _402  and  _404
REMARK  166  A    between atoms: _404  and  _405
REMARK  167  A    between atoms: _404  and  _407
REMARK  168  A    between atoms: _407  and  _408
REMARK  169  A    between atoms: _413  and  _415
REMARK  170  A    between atoms: _415  and  _416
REMARK  171  A    between atoms: _418  and  _420
REMARK  172  A    between atoms: _420  and  _421
REMARK  173  A    between atoms: _420  and  _423
REMARK  174  A    between atoms: _423  and  _424
REMARK  175  A    between atoms: _427  and  _429
REMARK  176  A    between atoms: _429  and  _430
REMARK  177  A    between atoms: _429  and  _432
REMARK  178  A    between atoms: _432  and  _433
REMARK  179  A    between atoms: _438  and  _439
REMARK  180  A    between atoms: _441  and  _443
REMARK  181  A    between atoms: _443  and  _444
REMARK  182  A    between atoms: _443  and  _446
REMARK  183  A    between atoms: _446  and  _447
REMARK  184  A    between atoms: _450  and  _452
REMARK  185  A    between atoms: _452  and  _453
REMARK  186  A    between atoms: _452  and  _455
REMARK  187  A    between atoms: _455  and  _456
REMARK  188  A    between atoms: _461  and  _463
REMARK  189  A    between atoms: _463  and  _464
REMARK  190  A    between atoms: _467  and  _469
REMARK  191  A    between atoms: _469  and  _470
REMARK  192  A    between atoms: _469  and  _472
REMARK  193  A    between atoms: _472  and  _473
REMARK  194  A    between atoms: _476  and  _478
REMARK  195  A    between atoms: _478  and  _479
REMARK  196  A    between atoms: _478  and  _481
REMARK  197  A    between atoms: _481  and  _482
REMARK  198  A    between atoms: _485  and  _487
REMARK  199  A    between atoms: _487  and  _488
REMARK  200  A    between atoms: _487  and  _490
REMARK  201  A    between atoms: _490  and  _491
REMARK  202  A    between atoms: _496  and  _498
REMARK  203  A    between atoms: _498  and  _499
REMARK  204  A    between atoms: _498  and  _501
REMARK  205  A    between atoms: _501  and  _502
REMARK  206  A    between atoms: _502  and  _503
REMARK  207  A    between atoms: _503  and  _504
REMARK  208  A    between atoms: _513  and  _515
REMARK  209  A    between atoms: _515  and  _516
REMARK  210  A    between atoms: _515  and  _518
REMARK  211  A    between atoms: _518  and  _519
REMARK  212  A    between atoms: _522  and  _524
REMARK  213  A    between atoms: _524  and  _525
REMARK  214  A    between atoms: _524  and  _527
REMARK  215  A    between atoms: _527  and  _528
REMARK  216  A    between atoms: _531  and  _533
REMARK  217  A    between atoms: _533  and  _534
REMARK  218  A    between atoms: _533  and  _536
REMARK  219  A    between atoms: _536  and  _537
REMARK  220  A    between atoms: _539  and  _541
REMARK  221  A    between atoms: _541  and  _542
REMARK  222  A    between atoms: _541  and  _544
REMARK  223  A    between atoms: _544  and  _545
REMARK  224  A    between atoms: _550  and  _552
REMARK  225  A    between atoms: _552  and  _553
REMARK  226  A    between atoms: _552  and  _555
REMARK  227  A    between atoms: _555  and  _556
REMARK  228  A    between atoms: _559  and  _561
REMARK  229  A    between atoms: _561  and  _562
REMARK  230  A    between atoms: _565  and  _567
REMARK  231  A    between atoms: _567  and  _568
REMARK  232  A    between atoms: _567  and  _570
REMARK  233  A    between atoms: _570  and  _571
REMARK  234  A    between atoms: _571  and  _572
REMARK  235  A    between atoms: _572  and  _573
REMARK  236  A    between atoms: _573  and  _574
REMARK  237  A    between atoms: _578  and  _580
REMARK  238  A    between atoms: _580  and  _581
REMARK  239  A    between atoms: _580  and  _583
REMARK  240  A    between atoms: _583  and  _584
REMARK  241  A    between atoms: _587  and  _589
REMARK  242  A    between atoms: _589  and  _590
REMARK  243  A    between atoms: _589  and  _592
REMARK  244  A    between atoms: _592  and  _593
REMARK  245  A    between atoms: _596  and  _598
REMARK  246  A    between atoms: _598  and  _599
REMARK  247  A    between atoms: _598  and  _601
REMARK  248  A    between atoms: _601  and  _602
REMARK  249  A    between atoms: _605  and  _607
REMARK  250  A    between atoms: _607  and  _608
REMARK  251  A    between atoms: _607  and  _610
REMARK  252  A    between atoms: _610  and  _611
REMARK  253  A    between atoms: _617  and  _619
REMARK  254  A    between atoms: _619  and  _620
REMARK  255  A    between atoms: _622  and  _624
REMARK  256  A    between atoms: _624  and  _625
REMARK  257  A    between atoms: _624  and  _627
REMARK  258  A    between atoms: _627  and  _628
REMARK  259  A    between atoms: _631  and  _633
REMARK  260  A    between atoms: _633  and  _634
REMARK  261  A    between atoms: _633  and  _636
REMARK  262  A    between atoms: _636  and  _637
REMARK                            x       y       z     vdW  Elec       q    Type
REMARK                         _______ _______ _______ _____ _____    ______ ____
ROOT
ATOM      1  C   LEU A   1      33.095  29.311  39.945  0.00  0.00    +0.238 C 
ATOM      2  O   LEU A   1      33.197  30.124  40.881  0.00  0.00    -0.274 OA
ATOM      3  N   LEU A   2      33.320  29.637  38.676  0.00  0.00    -0.298 N 
ATOM      4  H   LEU A   2      33.217  28.910  37.940  0.00  0.00    +0.150 HD
ENDROOT
BRANCH   1   5
ATOM      5  CA  LEU A   1      32.712  27.850  40.208  0.00  0.00    +0.145 C 
BRANCH   5   6
ATOM      6  N   LEU A   1      31.657  27.400  39.305  0.00  0.00    -0.238 NA
ATOM      7  H   LEU A   1      31.863  26.684  38.579  0.00  0.00    +0.142 HD
ENDBRANCH   5   6
BRANCH   5   8
ATOM      8  CB  LEU A   1      33.920  26.904  40.142  0.00  0.00    +0.026 C 
BRANCH   8   9
ATOM      9  CG  LEU A   1      35.216  27.238  40.893  0.00  0.00    +0.002 C 
ATOM     10  CD2 LEU A   1      36.051  25.967  41.052  0.00  0.00    +0.000 C 
ATOM     11  CD1 LEU A   1      36.020  28.298  40.157  0.00  0.00    +0.000 C 
ENDBRANCH   8   9
ENDBRANCH   5   8
ENDBRANCH   1   5
BRANCH   3  12
ATOM     12  CA  LEU A   2      33.707  30.989  38.291  0.00  0.00    +0.137 C 
BRANCH  12  13
ATOM     13  C   LEU A   2      32.611  32.008  38.569  0.00  0.00    +0.227 C 
ATOM     14  O   LEU A   2      32.907  33.149  38.914  0.00  0.00    -0.286 OA
ENDBRANCH  12  13
BRANCH  12  15
ATOM     15  CB  LEU A   2      34.140  31.028  36.808  0.00  0.00    +0.028 C 
BRANCH  15  16
ATOM     16  CG  LEU A   2      35.405  30.238  36.474  0.00  0.00    +0.002 C 
ATOM     17  CD2 LEU A   2      36.647  30.816  37.134  0.00  0.00    +0.000 C 
ATOM     18  CD1 LEU A   2      35.571  30.200  34.947  0.00  0.00    +0.000 C 
ENDBRANCH  15  16
ENDBRANCH  12  15
ENDBRANCH   3  12
TORSDOF 8
REMARK  Name = ../refined-set-2016/3e93/3e93_pocket.pdb
REMARK  262 active torsions:
REMARK  status: ('A' for Active; 'I' for Inactive)
REMARK    1  A    between atoms: _1  and  _3
REMARK    2  A    between atoms: _3  and  _4
REMARK    3  A    between atoms: _3  and  _6
REMARK    4  A    between atoms: _6  and  _7
REMARK    5  A    between atoms: _17  and  _19
REMARK    6  A    between atoms: _19  and  _20
REMARK    7  A    between atoms: _19  and  _22
REMARK    8  A    between atoms: _22  and  _23
REMARK    9  A    between atoms: _26  and  _27
REMARK   10  A    between atoms: _32  and  _34
REMARK   11  A    between atoms: _34  and  _35
REMARK   12  A    between atoms: _34  and  _37
REMARK   13  A    between atoms: _40  and  _42
REMARK   14  A    between atoms: _42  and  _43
REMARK   15  A    between atoms: _45  and  _47
REMARK   16  A    between atoms: _47  and  _48
REMARK   17  A    between atoms: _47  and  _50
REMARK   18  A    between atoms: _50  and  _51
REMARK   19  A    between atoms: _53  and  _55
REMARK   20  A    between atoms: _55  and  _56
REMARK   21  A    between atoms: _55  and  _58
REMARK   22  A    between atoms: _58  and  _59
REMARK   23  A    between atoms: _61  and  _63
REMARK   24  A    between atoms: _63  and  _64
REMARK   25  A    between atoms: _63  and  _66
REMARK   26  A    between atoms: _69  and  _71
REMARK   27  A    between atoms: _71  and  _72
REMARK   28  A    between atoms: _71  and  _74
REMARK   29  A    between atoms: _76  and  _78
REMARK   30  A    between atoms: _78  and  _79
REMARK   31  A    between atoms: _82  and  _84
REMARK   32  A    between atoms: _84  and  _85
REMARK   33  A    between atoms: _88  and  _90
REMARK   34  A    between atoms: _90  and  _91
REMARK   35  A    between atoms: _90  and  _93
REMARK   36  A    between atoms: _93  and  _94
REMARK   37  A    between atoms: _94  and  _95
REMARK   38  A    between atoms: _95  and  _96
REMARK   39  A    between atoms: _105  and  _107
REMARK   40  A    between atoms: _107  and  _108
REMARK   41  A    between atoms: _107  and  _110
REMARK   42  A    between atoms: _113  and  _115
REMARK   43  A    between atoms: _115  and  _116
REMARK   44  A    between atoms: _119  and  _121
REMARK   45  A    between atoms: _121  and  _122
REMARK   46  A    between atoms: _121  and  _124
REMARK   47  A    between atoms: _127  and  _129
REMARK   48  A    between atoms: _129  and  _130
REMARK   49  A    between atoms: _129  and  _132
REMARK   50  A    between atoms: _132  and  _133
REMARK   51  A    between atoms: _133  and  _134
REMARK   52  A    between atoms: _134  and  _135
REMARK   53  A    between atoms: _135  and  _136
REMARK   54  A    between atoms: _140  and  _142
REMARK   55  A    between atoms: _142  and  _143
REMARK   56  A    between atoms: _142  and  _145
REMARK   57  A    between atoms: _145  and  _146
REMARK   58  A    between atoms: _146  and  _147
REMARK   59  A    between atoms: _147  and  _148
REMARK   60  A    between atoms: _148  and  _149
REMARK   61  A    between atoms: _153  and  _155
REMARK   62  A    between atoms: _155  and  _156
REMARK   63  A    between atoms: _155  and  _158
REMARK   64  A    between atoms: _158  and  _159
REMARK   65  A    between atoms: _162  and  _164
REMARK   66  A    between atoms: _164  and  _165
REMARK   67  A    between atoms: _164  and  _167
REMARK   68  A    between atoms: _167  and  _168
REMARK   69  A    between atoms: _168  and  _169
REMARK   70  A    between atoms: _169  and  _170
REMARK   71  A    between atoms: _179  and  _181
REMARK   72  A    between atoms: _181  and  _182
REMARK   73  A    between atoms: _181  and  _184
REMARK   74  A    between atoms: _184  and  _185
REMARK   75  A    between atoms: _185  and  _186
REMARK   76  A    between atoms: _186  and  _187
REMARK   77  A    between atoms: _196  and  _198
REMARK   78  A    between atoms: _198  and  _199
REMARK   79  A    between atoms: _198  and  _201
REMARK   80  A    between atoms: _201  and  _202
REMARK   81  A    between atoms: _202  and  _203
REMARK   82  A    between atoms: _206  and  _208
REMARK   83  A    between atoms: _208  and  _209
REMARK   84  A    between atoms: _208  and  _211
REMARK   85  A    between atoms: _211  and  _212
REMARK   86  A    between atoms: _215  and  _217
REMARK   87  A    between atoms: _217  and  _218
REMARK   88  A    between atoms: _217  and  _220
REMARK   89  A    between atoms: _220  and  _221
REMARK   90  A    between atoms: _224  and  _226
REMARK   91  A    between atoms: _226  and  _227
REMARK   92  A    between atoms: _226  and  _229
REMARK   93  A    between atoms: _229  and  _230
REMARK   94  A    between atoms: _233  and  _235
REMARK   95  A    between atoms: _235  and  _236
REMARK   96  A    between atoms: _235  and  _238
REMARK   97  A    between atoms: _238  and  _239
REMARK   98  A    between atoms: _239  and  _240
REMARK   99  A    between atoms: _242  and  _244
REMARK  100  A    between atoms: _244  and  _245
REMARK  101  A    between atoms: _244  and  _247
REMARK  102  A    between atoms: _247  and  _248
REMARK  103  A    between atoms: _253  and  _255
REMARK  104  A    between atoms: _255  and  _256
REMARK  105  A    between atoms: _255  and  _258
REMARK  106  A    between atoms: _258  and  _259
REMARK  107  A    between atoms: _264  and  _266
REMARK  108  A    between atoms: _266  and  _267
REMARK  109  A    between atoms: _266  and  _269
REMARK  110  A    between atoms: _272  and  _274
REMARK  111  A    between atoms: _274  and  _275
REMARK  112  A    between atoms: _274  and  _277
REMARK  113  A    between atoms: _277  and  _278
REMARK  114  A    between atoms: _281  and  _283
REMARK  115  A    between atoms: _283  and  _284
REMARK  116  A    between atoms: _286  and  _288
REMARK  117  A    between atoms: _288  and  _289
REMARK  118  A    between atoms: _288  and  _291
REMARK  119  A    between atoms: _291  and  _292
REMARK  120  A    between atoms: _295  and  _297
REMARK  121  A    between atoms: _297  and  _298
REMARK  122  A    between atoms: _297  and  _300
REMARK  123  A    between atoms: _300  and  _301
REMARK  124  A    between atoms: _304  and  _306
REMARK  125  A    between atoms: _306  and  _307
REMARK  126  A    between atoms: _306  and  _309
REMARK  127  A    between atoms: _309  and  _310
REMARK  128  A    between atoms: _313  and  _315
REMARK  129  A    between atoms: _315  and  _316
REMARK  130  A    between atoms: _315  and  _318
REMARK  131  A    between atoms: _318  and  _319
REMARK  132  A    between atoms: _324  and  _325
REMARK  133  A    between atoms: _327  and  _329
REMARK  134  A    between atoms: _329  and  _330
REMARK  135  A    between atoms: _329  and  _332
REMARK  136  A    between atoms: _332  and  _333
REMARK  137  A    between atoms: _336  and  _338
REMARK  138  A    between atoms: _338  and  _339
REMARK  139  A    between atoms: _338  and  _341
REMARK  140  A    between atoms: _344  and  _346
REMARK  141  A    between atoms: _346  and  _347
REMARK  142  A    between atoms: _346  and  _349
REMARK  143  A    between atoms: _349  and  _350
REMARK  144  A    between atoms: _353  and  _355
REMARK  145  A    between atoms: _355  and  _356
REMARK  146  A    between atoms: _355  and  _358
REMARK  147  A    between atoms: _358  and  _359
REMARK  148  A    between atoms: _364  and  _366
REMARK  149  A    between atoms: _366  and  _367
REMARK  150  A    between atoms: _366  and  _369
REMARK  151  A    between atoms: _369  and  _370
REMARK  152  A    between atoms: _373  and  _375
REMARK  153  A    between atoms: _375  and  _376
REMARK  154  A    between atoms: _375  and  _378
REMARK  155  A    between atoms: _378  and  _379
REMARK  156  A    between atoms: _379  and  _380
REMARK  157  A    between atoms: _382  and  _384
REMARK  158  A    between atoms: _384  and  _385
REMARK  159  A    between atoms: _387  and  _389
REMARK  160  A    between atoms: _389  and  _390
REMARK  161  A    between atoms: _393  and  _395
REMARK  162  A    between atoms: _395  and  _396
REMARK  163  A    between atoms: _395  and  _398
REMARK  164  A    between atoms: _398  and  _399
REMARK  165  A    between atoms: _402  and  _404
REMARK  166  A    between atoms: _404  and  _405
REMARK  167  A    between atoms: _404  and  _407
REMARK  168  A    between atoms: _407  and  _408
REMARK  169  A    between atoms: _413  and  _415
REMARK  170  A    between atoms: _415  and  _416
REMARK  171  A    between atoms: _418  and  _420
REMARK  172  A    between atoms: _420  and  _421
REMARK  173  A    between atoms: _420  and  _423
REMARK  174  A    between atoms: _423  and  _424
REMARK  175  A    between atoms: _427  and  _429
REMARK  176  A    between atoms: _429  and  _430
REMARK  177  A    between atoms: _429  and  _432
REMARK  178  A    between atoms: _432  and  _433
REMARK  179  A    between atoms: _438  and  _439
REMARK  180  A    between atoms: _441  and  _443
REMARK  181  A    between atoms: _443  and  _444
REMARK  182  A    between atoms: _443  and  _446
REMARK  183  A    between atoms: _446  and  _447
REMARK  184  A    between atoms: _450  and  _452
REMARK  185  A    between atoms: _452  and  _453
REMARK  186  A    between atoms: _452  and  _455
REMARK  187  A    between atoms: _455  and  _456
REMARK  188  A    between atoms: _461  and  _463
REMARK  189  A    between atoms: _463  and  _464
REMARK  190  A    between atoms: _467  and  _469
REMARK  191  A    between atoms: _469  and  _470
REMARK  192  A    between atoms: _469  and  _472
REMARK  193  A    between atoms: _472  and  _473
REMARK  194  A    between atoms: _476  and  _478
REMARK  195  A    between atoms: _478  and  _479
REMARK  196  A    between atoms: _478  and  _481
REMARK  197  A    between atoms: _481  and  _482
REMARK  198  A    between atoms: _485  and  _487
REMARK  199  A    between atoms: _487  and  _488
REMARK  200  A    between atoms: _487  and  _490
REMARK  201  A    between atoms: _490  and  _491
REMARK  202  A    between atoms: _496  and  _498
REMARK  203  A    between atoms: _498  and  _499
REMARK  204  A    between atoms: _498  and  _501
REMARK  205  A    between atoms: _501  and  _502
REMARK  206  A    between atoms: _502  and  _503
REMARK  207  A    between atoms: _503  and  _504
REMARK  208  A    between atoms: _513  and  _515
REMARK  209  A    between atoms: _515  and  _516
REMARK  210  A    between atoms: _515  and  _518
REMARK  211  A    between atoms: _518  and  _519
REMARK  212  A    between atoms: _522  and  _524
REMARK  213  A    between atoms: _524  and  _525
REMARK  214  A    between atoms: _524  and  _527
REMARK  215  A    between atoms: _527  and  _528
REMARK  216  A    between atoms: _531  and  _533
REMARK  217  A    between atoms: _533  and  _534
REMARK  218  A    between atoms: _533  and  _536
REMARK  219  A    between atoms: _536  and  _537
REMARK  220  A    between atoms: _539  and  _541
REMARK  221  A    between atoms: _541  and  _542
REMARK  222  A    between atoms: _541  and  _544
REMARK  223  A    between atoms: _544  and  _545
REMARK  224  A    between atoms: _550  and  _552
REMARK  225  A    between atoms: _552  and  _553
REMARK  226  A    between atoms: _552  and  _555
REMARK  227  A    between atoms: _555  and  _556
REMARK  228  A    between atoms: _559  and  _561
REMARK  229  A    between atoms: _561  and  _562
REMARK  230  A    between atoms: _565  and  _567
REMARK  231  A    between atoms: _567  and  _568
REMARK  232  A    between atoms: _567  and  _570
REMARK  233  A    between atoms: _570  and  _571
REMARK  234  A    between atoms: _571  and  _572
REMARK  235  A    between atoms: _572  and  _573
REMARK  236  A    between atoms: _573  and  _574
REMARK  237  A    between atoms: _578  and  _580
REMARK  238  A    between atoms: _580  and  _581
REMARK  239  A    between atoms: _580  and  _583
REMARK  240  A    between atoms: _583  and  _584
REMARK  241  A    between atoms: _587  and  _589
REMARK  242  A    between atoms: _589  and  _590
REMARK  243  A    between atoms: _589  and  _592
REMARK  244  A    between atoms: _592  and  _593
REMARK  245  A    between atoms: _596  and  _598
REMARK  246  A    between atoms: _598  and  _599
REMARK  247  A    between atoms: _598  and  _601
REMARK  248  A    between atoms: _601  and  _602
REMARK  249  A    between atoms: _605  and  _607
REMARK  250  A    between atoms: _607  and  _608
REMARK  251  A    between atoms: _607  and  _610
REMARK  252  A    between atoms: _610  and  _611
REMARK  253  A    between atoms: _617  and  _619
REMARK  254  A    between atoms: _619  and  _620
REMARK  255  A    between atoms: _622  and  _624
REMARK  256  A    between atoms: _624  and  _625
REMARK  257  A    between atoms: _624  and  _627
REMARK  258  A    between atoms: _627  and  _628
REMARK  259  A    between atoms: _631  and  _633
REMARK  260  A    between atoms: _633  and  _634
REMARK  261  A    between atoms: _633  and  _636
REMARK  262  A    between atoms: _636  and  _637
REMARK                            x       y       z     vdW  Elec       q    Type
REMARK                         _______ _______ _______ _____ _____    ______ ____
ROOT
ATOM      1  CA  MET A   1      34.163  33.229  43.145  0.00  0.00    +0.134 C 
ENDROOT
BRANCH   1   2
ATOM      2  N   MET A   1      32.934  32.696  42.547  0.00  0.00    -0.239 NA
ATOM      3  H   MET A   1      32.994  32.196  41.637  0.00  0.00    +0.142 HD
ENDBRANCH   1   2
BRANCH   1   4
ATOM      4  C   MET A   1      34.237  34.736  43.047  0.00  0.00    +0.224 C 
ATOM      5  O   MET A   1      34.496  35.256  41.975  0.00  0.00    -0.287 OA
ENDBRANCH   1   4
BRANCH   1   6
ATOM      6  CB  MET A   1      35.410  32.664  42.440  0.00  0.00    +0.037 C 
BRANCH   6   7
ATOM      7  CG  MET A   1      35.605  31.168  42.512  0.00  0.00    +0.059 C 
BRANCH   7   8
ATOM      8  SD  MET A   1      36.012  30.598  44.152  0.00  0.00    -0.139 S 
ATOM      9  CE  MET A   1      34.394  30.359  44.900  0.00  0.00    +0.069 C 
ENDBRANCH   7   8
ENDBRANCH   6   7
ENDBRANCH   1   6
TORSDOF 5
REMARK  Name = ../refined-set-2016/3e93/3e93_pocket.pdb
REMARK  262 active torsions:
REMARK  status: ('A' for Active; 'I' for Inactive)
REMARK    1  A    between atoms: _1  and  _3
REMARK    2  A    between atoms: _3  and  _4
REMARK    3  A    between atoms: _3  and  _6
REMARK    4  A    between atoms: _6  and  _7
REMARK    5  A    between atoms: _17  and  _19
REMARK    6  A    between atoms: _19  and  _20
REMARK    7  A    between atoms: _19  and  _22
REMARK    8  A    between atoms: _22  and  _23
REMARK    9  A    between atoms: _26  and  _27
REMARK   10  A    between atoms: _32  and  _34
REMARK   11  A    between atoms: _34  and  _35
REMARK   12  A    between atoms: _34  and  _37
REMARK   13  A    between atoms: _40  and  _42
REMARK   14  A    between atoms: _42  and  _43
REMARK   15  A    between atoms: _45  and  _47
REMARK   16  A    between atoms: _47  and  _48
REMARK   17  A    between atoms: _47  and  _50
REMARK   18  A    between atoms: _50  and  _51
REMARK   19  A    between atoms: _53  and  _55
REMARK   20  A    between atoms: _55  and  _56
REMARK   21  A    between atoms: _55  and  _58
REMARK   22  A    between atoms: _58  and  _59
REMARK   23  A    between atoms: _61  and  _63
REMARK   24  A    between atoms: _63  and  _64
REMARK   25  A    between atoms: _63  and  _66
REMARK   26  A    between atoms: _69  and  _71
REMARK   27  A    between atoms: _71  and  _72
REMARK   28  A    between atoms: _71  and  _74
REMARK   29  A    between atoms: _76  and  _78
REMARK   30  A    between atoms: _78  and  _79
REMARK   31  A    between atoms: _82  and  _84
REMARK   32  A    between atoms: _84  and  _85
REMARK   33  A    between atoms: _88  and  _90
REMARK   34  A    between atoms: _90  and  _91
REMARK   35  A    between atoms: _90  and  _93
REMARK   36  A    between atoms: _93  and  _94
REMARK   37  A    between atoms: _94  and  _95
REMARK   38  A    between atoms: _95  and  _96
REMARK   39  A    between atoms: _105  and  _107
REMARK   40  A    between atoms: _107  and  _108
REMARK   41  A    between atoms: _107  and  _110
REMARK   42  A    between atoms: _113  and  _115
REMARK   43  A    between atoms: _115  and  _116
REMARK   44  A    between atoms: _119  and  _121
REMARK   45  A    between atoms: _121  and  _122
REMARK   46  A    between atoms: _121  and  _124
REMARK   47  A    between atoms: _127  and  _129
REMARK   48  A    between atoms: _129  and  _130
REMARK   49  A    between atoms: _129  and  _132
REMARK   50  A    between atoms: _132  and  _133
REMARK   51  A    between atoms: _133  and  _134
REMARK   52  A    between atoms: _134  and  _135
REMARK   53  A    between atoms: _135  and  _136
REMARK   54  A    between atoms: _140  and  _142
REMARK   55  A    between atoms: _142  and  _143
REMARK   56  A    between atoms: _142  and  _145
REMARK   57  A    between atoms: _145  and  _146
REMARK   58  A    between atoms: _146  and  _147
REMARK   59  A    between atoms: _147  and  _148
REMARK   60  A    between atoms: _148  and  _149
REMARK   61  A    between atoms: _153  and  _155
REMARK   62  A    between atoms: _155  and  _156
REMARK   63  A    between atoms: _155  and  _158
REMARK   64  A    between atoms: _158  and  _159
REMARK   65  A    between atoms: _162  and  _164
REMARK   66  A    between atoms: _164  and  _165
REMARK   67  A    between atoms: _164  and  _167
REMARK   68  A    between atoms: _167  and  _168
REMARK   69  A    between atoms: _168  and  _169
REMARK   70  A    between atoms: _169  and  _170
REMARK   71  A    between atoms: _179  and  _181
REMARK   72  A    between atoms: _181  and  _182
REMARK   73  A    between atoms: _181  and  _184
REMARK   74  A    between atoms: _184  and  _185
REMARK   75  A    between atoms: _185  and  _186
REMARK   76  A    between atoms: _186  and  _187
REMARK   77  A    between atoms: _196  and  _198
REMARK   78  A    between atoms: _198  and  _199
REMARK   79  A    between atoms: _198  and  _201
REMARK   80  A    between atoms: _201  and  _202
REMARK   81  A    between atoms: _202  and  _203
REMARK   82  A    between atoms: _206  and  _208
REMARK   83  A    between atoms: _208  and  _209
REMARK   84  A    between atoms: _208  and  _211
REMARK   85  A    between atoms: _211  and  _212
REMARK   86  A    between atoms: _215  and  _217
REMARK   87  A    between atoms: _217  and  _218
REMARK   88  A    between atoms: _217  and  _220
REMARK   89  A    between atoms: _220  and  _221
REMARK   90  A    between atoms: _224  and  _226
REMARK   91  A    between atoms: _226  and  _227
REMARK   92  A    between atoms: _226  and  _229
REMARK   93  A    between atoms: _229  and  _230
REMARK   94  A    between atoms: _233  and  _235
REMARK   95  A    between atoms: _235  and  _236
REMARK   96  A    between atoms: _235  and  _238
REMARK   97  A    between atoms: _238  and  _239
REMARK   98  A    between atoms: _239  and  _240
REMARK   99  A    between atoms: _242  and  _244
REMARK  100  A    between atoms: _244  and  _245
REMARK  101  A    between atoms: _244  and  _247
REMARK  102  A    between atoms: _247  and  _248
REMARK  103  A    between atoms: _253  and  _255
REMARK  104  A    between atoms: _255  and  _256
REMARK  105  A    between atoms: _255  and  _258
REMARK  106  A    between atoms: _258  and  _259
REMARK  107  A    between atoms: _264  and  _266
REMARK  108  A    between atoms: _266  and  _267
REMARK  109  A    between atoms: _266  and  _269
REMARK  110  A    between atoms: _272  and  _274
REMARK  111  A    between atoms: _274  and  _275
REMARK  112  A    between atoms: _274  and  _277
REMARK  113  A    between atoms: _277  and  _278
REMARK  114  A    between atoms: _281  and  _283
REMARK  115  A    between atoms: _283  and  _284
REMARK  116  A    between atoms: _286  and  _288
REMARK  117  A    between atoms: _288  and  _289
REMARK  118  A    between atoms: _288  and  _291
REMARK  119  A    between atoms: _291  and  _292
REMARK  120  A    between atoms: _295  and  _297
REMARK  121  A    between atoms: _297  and  _298
REMARK  122  A    between atoms: _297  and  _300
REMARK  123  A    between atoms: _300  and  _301
REMARK  124  A    between atoms: _304  and  _306
REMARK  125  A    between atoms: _306  and  _307
REMARK  126  A    between atoms: _306  and  _309
REMARK  127  A    between atoms: _309  and  _310
REMARK  128  A    between atoms: _313  and  _315
REMARK  129  A    between atoms: _315  and  _316
REMARK  130  A    between atoms: _315  and  _318
REMARK  131  A    between atoms: _318  and  _319
REMARK  132  A    between atoms: _324  and  _325
REMARK  133  A    between atoms: _327  and  _329
REMARK  134  A    between atoms: _329  and  _330
REMARK  135  A    between atoms: _329  and  _332
REMARK  136  A    between atoms: _332  and  _333
REMARK  137  A    between atoms: _336  and  _338
REMARK  138  A    between atoms: _338  and  _339
REMARK  139  A    between atoms: _338  and  _341
REMARK  140  A    between atoms: _344  and  _346
REMARK  141  A    between atoms: _346  and  _347
REMARK  142  A    between atoms: _346  and  _349
REMARK  143  A    between atoms: _349  and  _350
REMARK  144  A    between atoms: _353  and  _355
REMARK  145  A    between atoms: _355  and  _356
REMARK  146  A    between atoms: _355  and  _358
REMARK  147  A    between atoms: _358  and  _359
REMARK  148  A    between atoms: _364  and  _366
REMARK  149  A    between atoms: _366  and  _367
REMARK  150  A    between atoms: _366  and  _369
REMARK  151  A    between atoms: _369  and  _370
REMARK  152  A    between atoms: _373  and  _375
REMARK  153  A    between atoms: _375  and  _376
REMARK  154  A    between atoms: _375  and  _378
REMARK  155  A    between atoms: _378  and  _379
REMARK  156  A    between atoms: _379  and  _380
REMARK  157  A    between atoms: _382  and  _384
REMARK  158  A    between atoms: _384  and  _385
REMARK  159  A    between atoms: _387  and  _389
REMARK  160  A    between atoms: _389  and  _390
REMARK  161  A    between atoms: _393  and  _395
REMARK  162  A    between atoms: _395  and  _396
REMARK  163  A    between atoms: _395  and  _398
REMARK  164  A    between atoms: _398  and  _399
REMARK  165  A    between atoms: _402  and  _404
REMARK  166  A    between atoms: _404  and  _405
REMARK  167  A    between atoms: _404  and  _407
REMARK  168  A    between atoms: _407  and  _408
REMARK  169  A    between atoms: _413  and  _415
REMARK  170  A    between atoms: _415  and  _416
REMARK  171  A    between atoms: _418  and  _420
REMARK  172  A    between atoms: _420  and  _421
REMARK  173  A    between atoms: _420  and  _423
REMARK  174  A    between atoms: _423  and  _424
REMARK  175  A    between atoms: _427  and  _429
REMARK  176  A    between atoms: _429  and  _430
REMARK  177  A    between atoms: _429  and  _432
REMARK  178  A    between atoms: _432  and  _433
REMARK  179  A    between atoms: _438  and  _439
REMARK  180  A    between atoms: _441  and  _443
REMARK  181  A    between atoms: _443  and  _444
REMARK  182  A    between atoms: _443  and  _446
REMARK  183  A    between atoms: _446  and  _447
REMARK  184  A    between atoms: _450  and  _452
REMARK  185  A    between atoms: _452  and  _453
REMARK  186  A    between atoms: _452  and  _455
REMARK  187  A    between atoms: _455  and  _456
REMARK  188  A    between atoms: _461  and  _463
REMARK  189  A    between atoms: _463  and  _464
REMARK  190  A    between atoms: _467  and  _469
REMARK  191  A    between atoms: _469  and  _470
REMARK  192  A    between atoms: _469  and  _472
REMARK  193  A    between atoms: _472  and  _473
REMARK  194  A    between atoms: _476  and  _478
REMARK  195  A    between atoms: _478  and  _479
REMARK  196  A    between atoms: _478  and  _481
REMARK  197  A    between atoms: _481  and  _482
REMARK  198  A    between atoms: _485  and  _487
REMARK  199  A    between atoms: _487  and  _488
REMARK  200  A    between atoms: _487  and  _490
REMARK  201  A    between atoms: _490  and  _491
REMARK  202  A    between atoms: _496  and  _498
REMARK  203  A    between atoms: _498  and  _499
REMARK  204  A    between atoms: _498  and  _501
REMARK  205  A    between atoms: _501  and  _502
REMARK  206  A    between atoms: _502  and  _503
REMARK  207  A    between atoms: _503  and  _504
REMARK  208  A    between atoms: _513  and  _515
REMARK  209  A    between atoms: _515  and  _516
REMARK  210  A    between atoms: _515  and  _518
REMARK  211  A    between atoms: _518  and  _519
REMARK  212  A    between atoms: _522  and  _524
REMARK  213  A    between atoms: _524  and  _525
REMARK  214  A    between atoms: _524  and  _527
REMARK  215  A    between atoms: _527  and  _528
REMARK  216  A    between atoms: _531  and  _533
REMARK  217  A    between atoms: _533  and  _534
REMARK  218  A    between atoms: _533  and  _536
REMARK  219  A    between atoms: _536  and  _537
REMARK  220  A    between atoms: _539  and  _541
REMARK  221  A    between atoms: _541  and  _542
REMARK  222  A    between atoms: _541  and  _544
REMARK  223  A    between atoms: _544  and  _545
REMARK  224  A    between atoms: _550  and  _552
REMARK  225  A    between atoms: _552  and  _553
REMARK  226  A    between atoms: _552  and  _555
REMARK  227  A    between atoms: _555  and  _556
REMARK  228  A    between atoms: _559  and  _561
REMARK  229  A    between atoms: _561  and  _562
REMARK  230  A    between atoms: _565  and  _567
REMARK  231  A    between atoms: _567  and  _568
REMARK  232  A    between atoms: _567  and  _570
REMARK  233  A    between atoms: _570  and  _571
REMARK  234  A    between atoms: _571  and  _572
REMARK  235  A    between atoms: _572  and  _573
REMARK  236  A    between atoms: _573  and  _574
REMARK  237  A    between atoms: _578  and  _580
REMARK  238  A    between atoms: _580  and  _581
REMARK  239  A    between atoms: _580  and  _583
REMARK  240  A    between atoms: _583  and  _584
REMARK  241  A    between atoms: _587  and  _589
REMARK  242  A    between atoms: _589  and  _590
REMARK  243  A    between atoms: _589  and  _592
REMARK  244  A    between atoms: _592  and  _593
REMARK  245  A    between atoms: _596  and  _598
REMARK  246  A    between atoms: _598  and  _599
REMARK  247  A    between atoms: _598  and  _601
REMARK  248  A    between atoms: _601  and  _602
REMARK  249  A    between atoms: _605  and  _607
REMARK  250  A    between atoms: _607  and  _608
REMARK  251  A    between atoms: _607  and  _610
REMARK  252  A    between atoms: _610  and  _611
REMARK  253  A    between atoms: _617  and  _619
REMARK  254  A    between atoms: _619  and  _620
REMARK  255  A    between atoms: _622  and  _624
REMARK  256  A    between atoms: _624  and  _625
REMARK  257  A    between atoms: _624  and  _627
REMARK  258  A    between atoms: _627  and  _628
REMARK  259  A    between atoms: _631  and  _633
REMARK  260  A    between atoms: _633  and  _634
REMARK  261  A    between atoms: _633  and  _636
REMARK  262  A    between atoms: _636  and  _637
REMARK                            x       y       z     vdW  Elec       q    Type
REMARK                         _______ _______ _______ _____ _____    ______ ____
ROOT
ATOM      1  CB  HIS A   1      37.747  36.325  46.782  0.00  0.00    +0.072 C 
ENDROOT
BRANCH   1   2
ATOM      2  CG  HIS A   1      38.637  36.482  47.973  0.00  0.00    +0.082 A 
ATOM      3  CD2 HIS A   1      38.365  36.446  49.301  0.00  0.00    +0.115 A 
ATOM      4  NE2 HIS A   1      39.550  36.649  49.960  0.00  0.00    -0.221 NA
ATOM      5  CE1 HIS A   1      40.510  36.842  49.073  0.00  0.00    +0.199 A 
ATOM      6  ND1 HIS A   1      39.988  36.739  47.865  0.00  0.00    -0.227 NA
ENDBRANCH   1   2
BRANCH   1   7
ATOM      7  CA  HIS A   1      37.358  37.653  46.113  0.00  0.00    +0.139 C 
BRANCH   7   8
ATOM      8  N   HIS A   1      36.345  37.412  45.098  0.00  0.00    -0.239 NA
ATOM      9  H   HIS A   1      36.652  37.292  44.112  0.00  0.00    +0.142 HD
ENDBRANCH   7   8
BRANCH   7  10
ATOM     10  C   HIS A   1      38.558  38.263  45.414  0.00  0.00    +0.224 C 
ATOM     11  O   HIS A   1      38.907  37.846  44.290  0.00  0.00    -0.287 OA
ENDBRANCH   7  10
ENDBRANCH   1   7
TORSDOF 4
REMARK  Name = ../refined-set-2016/3e93/3e93_pocket.pdb
REMARK  262 active torsions:
REMARK  status: ('A' for Active; 'I' for Inactive)
REMARK    1  A    between atoms: _1  and  _3
REMARK    2  A    between atoms: _3  and  _4
REMARK    3  A    between atoms: _3  and  _6
REMARK    4  A    between atoms: _6  and  _7
REMARK    5  A    between atoms: _17  and  _19
REMARK    6  A    between atoms: _19  and  _20
REMARK    7  A    between atoms: _19  and  _22
REMARK    8  A    between atoms: _22  and  _23
REMARK    9  A    between atoms: _26  and  _27
REMARK   10  A    between atoms: _32  and  _34
REMARK   11  A    between atoms: _34  and  _35
REMARK   12  A    between atoms: _34  and  _37
REMARK   13  A    between atoms: _40  and  _42
REMARK   14  A    between atoms: _42  and  _43
REMARK   15  A    between atoms: _45  and  _47
REMARK   16  A    between atoms: _47  and  _48
REMARK   17  A    between atoms: _47  and  _50
REMARK   18  A    between atoms: _50  and  _51
REMARK   19  A    between atoms: _53  and  _55
REMARK   20  A    between atoms: _55  and  _56
REMARK   21  A    between atoms: _55  and  _58
REMARK   22  A    between atoms: _58  and  _59
REMARK   23  A    between atoms: _61  and  _63
REMARK   24  A    between atoms: _63  and  _64
REMARK   25  A    between atoms: _63  and  _66
REMARK   26  A    between atoms: _69  and  _71
REMARK   27  A    between atoms: _71  and  _72
REMARK   28  A    between atoms: _71  and  _74
REMARK   29  A    between atoms: _76  and  _78
REMARK   30  A    between atoms: _78  and  _79
REMARK   31  A    between atoms: _82  and  _84
REMARK   32  A    between atoms: _84  and  _85
REMARK   33  A    between atoms: _88  and  _90
REMARK   34  A    between atoms: _90  and  _91
REMARK   35  A    between atoms: _90  and  _93
REMARK   36  A    between atoms: _93  and  _94
REMARK   37  A    between atoms: _94  and  _95
REMARK   38  A    between atoms: _95  and  _96
REMARK   39  A    between atoms: _105  and  _107
REMARK   40  A    between atoms: _107  and  _108
REMARK   41  A    between atoms: _107  and  _110
REMARK   42  A    between atoms: _113  and  _115
REMARK   43  A    between atoms: _115  and  _116
REMARK   44  A    between atoms: _119  and  _121
REMARK   45  A    between atoms: _121  and  _122
REMARK   46  A    between atoms: _121  and  _124
REMARK   47  A    between atoms: _127  and  _129
REMARK   48  A    between atoms: _129  and  _130
REMARK   49  A    between atoms: _129  and  _132
REMARK   50  A    between atoms: _132  and  _133
REMARK   51  A    between atoms: _133  and  _134
REMARK   52  A    between atoms: _134  and  _135
REMARK   53  A    between atoms: _135  and  _136
REMARK   54  A    between atoms: _140  and  _142
REMARK   55  A    between atoms: _142  and  _143
REMARK   56  A    between atoms: _142  and  _145
REMARK   57  A    between atoms: _145  and  _146
REMARK   58  A    between atoms: _146  and  _147
REMARK   59  A    between atoms: _147  and  _148
REMARK   60  A    between atoms: _148  and  _149
REMARK   61  A    between atoms: _153  and  _155
REMARK   62  A    between atoms: _155  and  _156
REMARK   63  A    between atoms: _155  and  _158
REMARK   64  A    between atoms: _158  and  _159
REMARK   65  A    between atoms: _162  and  _164
REMARK   66  A    between atoms: _164  and  _165
REMARK   67  A    between atoms: _164  and  _167
REMARK   68  A    between atoms: _167  and  _168
REMARK   69  A    between atoms: _168  and  _169
REMARK   70  A    between atoms: _169  and  _170
REMARK   71  A    between atoms: _179  and  _181
REMARK   72  A    between atoms: _181  and  _182
REMARK   73  A    between atoms: _181  and  _184
REMARK   74  A    between atoms: _184  and  _185
REMARK   75  A    between atoms: _185  and  _186
REMARK   76  A    between atoms: _186  and  _187
REMARK   77  A    between atoms: _196  and  _198
REMARK   78  A    between atoms: _198  and  _199
REMARK   79  A    between atoms: _198  and  _201
REMARK   80  A    between atoms: _201  and  _202
REMARK   81  A    between atoms: _202  and  _203
REMARK   82  A    between atoms: _206  and  _208
REMARK   83  A    between atoms: _208  and  _209
REMARK   84  A    between atoms: _208  and  _211
REMARK   85  A    between atoms: _211  and  _212
REMARK   86  A    between atoms: _215  and  _217
REMARK   87  A    between atoms: _217  and  _218
REMARK   88  A    between atoms: _217  and  _220
REMARK   89  A    between atoms: _220  and  _221
REMARK   90  A    between atoms: _224  and  _226
REMARK   91  A    between atoms: _226  and  _227
REMARK   92  A    between atoms: _226  and  _229
REMARK   93  A    between atoms: _229  and  _230
REMARK   94  A    between atoms: _233  and  _235
REMARK   95  A    between atoms: _235  and  _236
REMARK   96  A    between atoms: _235  and  _238
REMARK   97  A    between atoms: _238  and  _239
REMARK   98  A    between atoms: _239  and  _240
REMARK   99  A    between atoms: _242  and  _244
REMARK  100  A    between atoms: _244  and  _245
REMARK  101  A    between atoms: _244  and  _247
REMARK  102  A    between atoms: _247  and  _248
REMARK  103  A    between atoms: _253  and  _255
REMARK  104  A    between atoms: _255  and  _256
REMARK  105  A    between atoms: _255  and  _258
REMARK  106  A    between atoms: _258  and  _259
REMARK  107  A    between atoms: _264  and  _266
REMARK  108  A    between atoms: _266  and  _267
REMARK  109  A    between atoms: _266  and  _269
REMARK  110  A    between atoms: _272  and  _274
REMARK  111  A    between atoms: _274  and  _275
REMARK  112  A    between atoms: _274  and  _277
REMARK  113  A    between atoms: _277  and  _278
REMARK  114  A    between atoms: _281  and  _283
REMARK  115  A    between atoms: _283  and  _284
REMARK  116  A    between atoms: _286  and  _288
REMARK  117  A    between atoms: _288  and  _289
REMARK  118  A    between atoms: _288  and  _291
REMARK  119  A    between atoms: _291  and  _292
REMARK  120  A    between atoms: _295  and  _297
REMARK  121  A    between atoms: _297  and  _298
REMARK  122  A    between atoms: _297  and  _300
REMARK  123  A    between atoms: _300  and  _301
REMARK  124  A    between atoms: _304  and  _306
REMARK  125  A    between atoms: _306  and  _307
REMARK  126  A    between atoms: _306  and  _309
REMARK  127  A    between atoms: _309  and  _310
REMARK  128  A    between atoms: _313  and  _315
REMARK  129  A    between atoms: _315  and  _316
REMARK  130  A    between atoms: _315  and  _318
REMARK  131  A    between atoms: _318  and  _319
REMARK  132  A    between atoms: _324  and  _325
REMARK  133  A    between atoms: _327  and  _329
REMARK  134  A    between atoms: _329  and  _330
REMARK  135  A    between atoms: _329  and  _332
REMARK  136  A    between atoms: _332  and  _333
REMARK  137  A    between atoms: _336  and  _338
REMARK  138  A    between atoms: _338  and  _339
REMARK  139  A    between atoms: _338  and  _341
REMARK  140  A    between atoms: _344  and  _346
REMARK  141  A    between atoms: _346  and  _347
REMARK  142  A    between atoms: _346  and  _349
REMARK  143  A    between atoms: _349  and  _350
REMARK  144  A    between atoms: _353  and  _355
REMARK  145  A    between atoms: _355  and  _356
REMARK  146  A    between atoms: _355  and  _358
REMARK  147  A    between atoms: _358  and  _359
REMARK  148  A    between atoms: _364  and  _366
REMARK  149  A    between atoms: _366  and  _367
REMARK  150  A    between atoms: _366  and  _369
REMARK  151  A    between atoms: _369  and  _370
REMARK  152  A    between atoms: _373  and  _375
REMARK  153  A    between atoms: _375  and  _376
REMARK  154  A    between atoms: _375  and  _378
REMARK  155  A    between atoms: _378  and  _379
REMARK  156  A    between atoms: _379  and  _380
REMARK  157  A    between atoms: _382  and  _384
REMARK  158  A    between atoms: _384  and  _385
REMARK  159  A    between atoms: _387  and  _389
REMARK  160  A    between atoms: _389  and  _390
REMARK  161  A    between atoms: _393  and  _395
REMARK  162  A    between atoms: _395  and  _396
REMARK  163  A    between atoms: _395  and  _398
REMARK  164  A    between atoms: _398  and  _399
REMARK  165  A    between atoms: _402  and  _404
REMARK  166  A    between atoms: _404  and  _405
REMARK  167  A    between atoms: _404  and  _407
REMARK  168  A    between atoms: _407  and  _408
REMARK  169  A    between atoms: _413  and  _415
REMARK  170  A    between atoms: _415  and  _416
REMARK  171  A    between atoms: _418  and  _420
REMARK  172  A    between atoms: _420  and  _421
REMARK  173  A    between atoms: _420  and  _423
REMARK  174  A    between atoms: _423  and  _424
REMARK  175  A    between atoms: _427  and  _429
REMARK  176  A    between atoms: _429  and  _430
REMARK  177  A    between atoms: _429  and  _432
REMARK  178  A    between atoms: _432  and  _433
REMARK  179  A    between atoms: _438  and  _439
REMARK  180  A    between atoms: _441  and  _443
REMARK  181  A    between atoms: _443  and  _444
REMARK  182  A    between atoms: _443  and  _446
REMARK  183  A    between atoms: _446  and  _447
REMARK  184  A    between atoms: _450  and  _452
REMARK  185  A    between atoms: _452  and  _453
REMARK  186  A    between atoms: _452  and  _455
REMARK  187  A    between atoms: _455  and  _456
REMARK  188  A    between atoms: _461  and  _463
REMARK  189  A    between atoms: _463  and  _464
REMARK  190  A    between atoms: _467  and  _469
REMARK  191  A    between atoms: _469  and  _470
REMARK  192  A    between atoms: _469  and  _472
REMARK  193  A    between atoms: _472  and  _473
REMARK  194  A    between atoms: _476  and  _478
REMARK  195  A    between atoms: _478  and  _479
REMARK  196  A    between atoms: _478  and  _481
REMARK  197  A    between atoms: _481  and  _482
REMARK  198  A    between atoms: _485  and  _487
REMARK  199  A    between atoms: _487  and  _488
REMARK  200  A    between atoms: _487  and  _490
REMARK  201  A    between atoms: _490  and  _491
REMARK  202  A    between atoms: _496  and  _498
REMARK  203  A    between atoms: _498  and  _499
REMARK  204  A    between atoms: _498  and  _501
REMARK  205  A    between atoms: _501  and  _502
REMARK  206  A    between atoms: _502  and  _503
REMARK  207  A    between atoms: _503  and  _504
REMARK  208  A    between atoms: _513  and  _515
REMARK  209  A    between atoms: _515  and  _516
REMARK  210  A    between atoms: _515  and  _518
REMARK  211  A    between atoms: _518  and  _519
REMARK  212  A    between atoms: _522  and  _524
REMARK  213  A    between atoms: _524  and  _525
REMARK  214  A    between atoms: _524  and  _527
REMARK  215  A    between atoms: _527  and  _528
REMARK  216  A    between atoms: _531  and  _533
REMARK  217  A    between atoms: _533  and  _534
REMARK  218  A    between atoms: _533  and  _536
REMARK  219  A    between atoms: _536  and  _537
REMARK  220  A    between atoms: _539  and  _541
REMARK  221  A    between atoms: _541  and  _542
REMARK  222  A    between atoms: _541  and  _544
REMARK  223  A    between atoms: _544  and  _545
REMARK  224  A    between atoms: _550  and  _552
REMARK  225  A    between atoms: _552  and  _553
REMARK  226  A    between atoms: _552  and  _555
REMARK  227  A    between atoms: _555  and  _556
REMARK  228  A    between atoms: _559  and  _561
REMARK  229  A    between atoms: _561  and  _562
REMARK  230  A    between atoms: _565  and  _567
REMARK  231  A    between atoms: _567  and  _568
REMARK  232  A    between atoms: _567  and  _570
REMARK  233  A    between atoms: _570  and  _571
REMARK  234  A    between atoms: _571  and  _572
REMARK  235  A    between atoms: _572  and  _573
REMARK  236  A    between atoms: _573  and  _574
REMARK  237  A    between atoms: _578  and  _580
REMARK  238  A    between atoms: _580  and  _581
REMARK  239  A    between atoms: _580  and  _583
REMARK  240  A    between atoms: _583  and  _584
REMARK  241  A    between atoms: _587  and  _589
REMARK  242  A    between atoms: _589  and  _590
REMARK  243  A    between atoms: _589  and  _592
REMARK  244  A    between atoms: _592  and  _593
REMARK  245  A    between atoms: _596  and  _598
REMARK  246  A    between atoms: _598  and  _599
REMARK  247  A    between atoms: _598  and  _601
REMARK  248  A    between atoms: _601  and  _602
REMARK  249  A    between atoms: _605  and  _607
REMARK  250  A    between atoms: _607  and  _608
REMARK  251  A    between atoms: _607  and  _610
REMARK  252  A    between atoms: _610  and  _611
REMARK  253  A    between atoms: _617  and  _619
REMARK  254  A    between atoms: _619  and  _620
REMARK  255  A    between atoms: _622  and  _624
REMARK  256  A    between atoms: _624  and  _625
REMARK  257  A    between atoms: _624  and  _627
REMARK  258  A    between atoms: _627  and  _628
REMARK  259  A    between atoms: _631  and  _633
REMARK  260  A    between atoms: _633  and  _634
REMARK  261  A    between atoms: _633  and  _636
REMARK  262  A    between atoms: _636  and  _637
REMARK                            x       y       z     vdW  Elec       q    Type
REMARK                         _______ _______ _______ _____ _____    ______ ____
ROOT
ATOM      1  C   ILE A   3      38.403  34.712  39.701  0.00  0.00    +0.241 C 
ATOM      2  O   ILE A   3      37.762  33.897  40.347  0.00  0.00    -0.273 OA
ATOM      3  N   GLY A   4      37.833  35.697  39.030  0.00  0.00    -0.295 N 
ATOM      4  H   GLY A   4      38.437  36.391  38.545  0.00  0.00    +0.150 HD
ENDROOT
BRANCH   3   5
ATOM      5  CA  GLY A   4      36.400  35.842  38.948  0.00  0.00    +0.176 C 
BRANCH   5   6
ATOM      6  C   GLY A   4      35.982  36.000  37.495  0.00  0.00    +0.243 C 
ATOM      7  N   LEU A   5      34.671  36.064  37.276  0.00  0.00    -0.297 N 
ATOM      8  H   LEU A   5      34.029  36.130  38.091  0.00  0.00    +0.150 HD
ATOM      9  O   GLY A   4      36.828  36.103  36.605  0.00  0.00    -0.273 OA
BRANCH   7  10
ATOM     10  CA  LEU A   5      34.107  36.045  35.942  0.00  0.00    +0.149 C 
BRANCH  10  11
ATOM     11  C   LEU A   5      33.588  37.427  35.578  0.00  0.00    +0.241 C 
ATOM     12  O   LEU A   5      32.656  37.945  36.228  0.00  0.00    -0.273 OA
ATOM     13  N   LEU A   6      34.214  38.039  34.573  0.00  0.00    -0.297 N 
ATOM     14  H   LEU A   6      35.079  37.613  34.183  0.00  0.00    +0.150 HD
BRANCH  13  15
ATOM     15  CA  LEU A   6      33.720  39.293  34.001  0.00  0.00    +0.149 C 
BRANCH  15  16
ATOM     16  C   LEU A   6      32.500  39.112  33.099  0.00  0.00    +0.241 C 
ATOM     17  O   LEU A   6      31.600  39.967  33.068  0.00  0.00    -0.273 OA
ATOM     18  N   ASP A   7      32.479  38.003  32.360  0.00  0.00    -0.298 N 
ATOM     19  H   ASP A   7      33.226  37.293  32.498  0.00  0.00    +0.150 HD
BRANCH  18  20
ATOM     20  CA  ASP A   7      31.437  37.751  31.359  0.00  0.00    +0.148 C 
BRANCH  20  21
ATOM     21  C   ASP A   7      31.446  36.272  30.973  0.00  0.00    +0.227 C 
ATOM     22  O   ASP A   7      32.457  35.563  31.120  0.00  0.00    -0.286 OA
ENDBRANCH  20  21
BRANCH  20  23
ATOM     23  CB  ASP A   7      31.653  38.640  30.111  0.00  0.00    +0.142 C 
BRANCH  23  24
ATOM     24  CG  ASP A   7      30.401  38.770  29.229  0.00  0.00    +0.367 C 
ATOM     25  OD2 ASP A   7      29.299  38.396  29.676  0.00  0.00    -0.246 OA
ATOM     26  OD1 ASP A   7      30.514  39.269  28.070  0.00  0.00    -0.246 OA
ENDBRANCH  23  24
ENDBRANCH  20  23
ENDBRANCH  18  20
ENDBRANCH  15  16
BRANCH  15  27
ATOM     27  CB  LEU A   6      34.831  40.017  33.227  0.00  0.00    +0.029 C 
BRANCH  27  28
ATOM     28  CG  LEU A   6      36.102  40.477  33.955  0.00  0.00    +0.002 C 
ATOM     29  CD2 LEU A   6      35.769  41.426  35.096  0.00  0.00    +0.000 C 
ATOM     30  CD1 LEU A   6      37.052  41.167  32.949  0.00  0.00    +0.000 C 
ENDBRANCH  27  28
ENDBRANCH  15  27
ENDBRANCH  13  15
ENDBRANCH  10  11
BRANCH  10  31
ATOM     31  CB  LEU A   5      32.979  35.004  35.887  0.00  0.00    +0.029 C 
BRANCH  31  32
ATOM     32  CG  LEU A   5      32.486  34.524  34.516  0.00  0.00    +0.002 C 
ATOM     33  CD2 LEU A   5      31.311  33.541  34.692  0.00  0.00    +0.000 C 
ATOM     34  CD1 LEU A   5      33.635  33.883  33.735  0.00  0.00    +0.000 C 
ENDBRANCH  31  32
ENDBRANCH  10  31
ENDBRANCH   7  10
ENDBRANCH   5   6
ENDBRANCH   3   5
BRANCH   1  35
ATOM     35  CA  ILE A   3      39.932  34.664  39.653  0.00  0.00    +0.149 C 
BRANCH  35  38
ATOM     36  C   VAL A   2      40.163  35.054  42.052  0.00  0.00    +0.241 C 
ATOM     37  O   VAL A   2      39.457  36.075  42.006  0.00  0.00    -0.273 OA
ATOM     38  N   ILE A   3      40.490  34.344  40.970  0.00  0.00    -0.297 N 
ATOM     39  H   ILE A   3      41.153  33.549  41.063  0.00  0.00    +0.150 HD
BRANCH  36  40
ATOM     40  CA  VAL A   2      40.731  34.567  43.372  0.00  0.00    +0.148 C 
BRANCH  40  43
ATOM     41  C   ASN A   1      42.465  35.726  44.691  0.00  0.00    +0.239 C 
ATOM     42  O   ASN A   1      43.244  34.759  44.691  0.00  0.00    -0.274 OA
ATOM     43  N   VAL A   2      41.301  35.737  44.064  0.00  0.00    -0.297 N 
ATOM     44  H   VAL A   2      40.756  36.623  44.059  0.00  0.00    +0.150 HD
BRANCH  41  45
ATOM     45  CA  ASN A   1      42.822  37.003  45.443  0.00  0.00    +0.154 C 
BRANCH  45  46
ATOM     46  N   ASN A   1      41.678  37.874  45.719  0.00  0.00    -0.238 NA
ATOM     47  H   ASN A   1      40.981  37.596  46.439  0.00  0.00    +0.142 HD
ENDBRANCH  45  46
BRANCH  45  48
ATOM     48  CB  ASN A   1      43.528  36.642  46.739  0.00  0.00    +0.111 C 
BRANCH  48  49
ATOM     49  CG  ASN A   1      43.973  37.861  47.521  0.00  0.00    +0.221 C 
ATOM     50  OD1 ASN A   1      43.585  38.022  48.670  0.00  0.00    -0.275 OA
ATOM     51  ND2 ASN A   1      44.807  38.706  46.916  0.00  0.00    -0.329 N 
ATOM     52 HD21 ASN A   1      45.156  39.545  47.423  0.00  0.00    +0.145 HD
ATOM     53 HD22 ASN A   1      45.109  38.527  45.937  0.00  0.00    +0.145 HD
ENDBRANCH  48  49
ENDBRANCH  45  48
ENDBRANCH  41  45
ENDBRANCH  40  43
BRANCH  40  54
ATOM     54  CB  VAL A   2      39.622  33.896  44.208  0.00  0.00    +0.027 C 
ATOM     55  CG2 VAL A   2      40.140  33.573  45.655  0.00  0.00    +0.002 C 
ATOM     56  CG1 VAL A   2      39.063  32.619  43.523  0.00  0.00    +0.002 C 
ENDBRANCH  40  54
ENDBRANCH  36  40
ENDBRANCH  35  38
BRANCH  35  57
ATOM     57  CB  ILE A   3      40.421  33.661  38.552  0.00  0.00    +0.027 C 
ATOM     58  CG2 ILE A   3      39.872  32.249  38.812  0.00  0.00    +0.002 C 
BRANCH  57  59
ATOM     59  CG1 ILE A   3      40.087  34.179  37.134  0.00  0.00    +0.002 C 
ATOM     60  CD1 ILE A   3      40.969  35.314  36.686  0.00  0.00    +0.000 C 
ENDBRANCH  57  59
ENDBRANCH  35  57
ENDBRANCH   1  35
TORSDOF 25
REMARK  Name = ../refined-set-2016/3e93/3e93_pocket.pdb
REMARK  262 active torsions:
REMARK  status: ('A' for Active; 'I' for Inactive)
REMARK    1  A    between atoms: _1  and  _3
REMARK    2  A    between atoms: _3  and  _4
REMARK    3  A    between atoms: _3  and  _6
REMARK    4  A    between atoms: _6  and  _7
REMARK    5  A    between atoms: _17  and  _19
REMARK    6  A    between atoms: _19  and  _20
REMARK    7  A    between atoms: _19  and  _22
REMARK    8  A    between atoms: _22  and  _23
REMARK    9  A    between atoms: _26  and  _27
REMARK   10  A    between atoms: _32  and  _34
REMARK   11  A    between atoms: _34  and  _35
REMARK   12  A    between atoms: _34  and  _37
REMARK   13  A    between atoms: _40  and  _42
REMARK   14  A    between atoms: _42  and  _43
REMARK   15  A    between atoms: _45  and  _47
REMARK   16  A    between atoms: _47  and  _48
REMARK   17  A    between atoms: _47  and  _50
REMARK   18  A    between atoms: _50  and  _51
REMARK   19  A    between atoms: _53  and  _55
REMARK   20  A    between atoms: _55  and  _56
REMARK   21  A    between atoms: _55  and  _58
REMARK   22  A    between atoms: _58  and  _59
REMARK   23  A    between atoms: _61  and  _63
REMARK   24  A    between atoms: _63  and  _64
REMARK   25  A    between atoms: _63  and  _66
REMARK   26  A    between atoms: _69  and  _71
REMARK   27  A    between atoms: _71  and  _72
REMARK   28  A    between atoms: _71  and  _74
REMARK   29  A    between atoms: _76  and  _78
REMARK   30  A    between atoms: _78  and  _79
REMARK   31  A    between atoms: _82  and  _84
REMARK   32  A    between atoms: _84  and  _85
REMARK   33  A    between atoms: _88  and  _90
REMARK   34  A    between atoms: _90  and  _91
REMARK   35  A    between atoms: _90  and  _93
REMARK   36  A    between atoms: _93  and  _94
REMARK   37  A    between atoms: _94  and  _95
REMARK   38  A    between atoms: _95  and  _96
REMARK   39  A    between atoms: _105  and  _107
REMARK   40  A    between atoms: _107  and  _108
REMARK   41  A    between atoms: _107  and  _110
REMARK   42  A    between atoms: _113  and  _115
REMARK   43  A    between atoms: _115  and  _116
REMARK   44  A    between atoms: _119  and  _121
REMARK   45  A    between atoms: _121  and  _122
REMARK   46  A    between atoms: _121  and  _124
REMARK   47  A    between atoms: _127  and  _129
REMARK   48  A    between atoms: _129  and  _130
REMARK   49  A    between atoms: _129  and  _132
REMARK   50  A    between atoms: _132  and  _133
REMARK   51  A    between atoms: _133  and  _134
REMARK   52  A    between atoms: _134  and  _135
REMARK   53  A    between atoms: _135  and  _136
REMARK   54  A    between atoms: _140  and  _142
REMARK   55  A    between atoms: _142  and  _143
REMARK   56  A    between atoms: _142  and  _145
REMARK   57  A    between atoms: _145  and  _146
REMARK   58  A    between atoms: _146  and  _147
REMARK   59  A    between atoms: _147  and  _148
REMARK   60  A    between atoms: _148  and  _149
REMARK   61  A    between atoms: _153  and  _155
REMARK   62  A    between atoms: _155  and  _156
REMARK   63  A    between atoms: _155  and  _158
REMARK   64  A    between atoms: _158  and  _159
REMARK   65  A    between atoms: _162  and  _164
REMARK   66  A    between atoms: _164  and  _165
REMARK   67  A    between atoms: _164  and  _167
REMARK   68  A    between atoms: _167  and  _168
REMARK   69  A    between atoms: _168  and  _169
REMARK   70  A    between atoms: _169  and  _170
REMARK   71  A    between atoms: _179  and  _181
REMARK   72  A    between atoms: _181  and  _182
REMARK   73  A    between atoms: _181  and  _184
REMARK   74  A    between atoms: _184  and  _185
REMARK   75  A    between atoms: _185  and  _186
REMARK   76  A    between atoms: _186  and  _187
REMARK   77  A    between atoms: _196  and  _198
REMARK   78  A    between atoms: _198  and  _199
REMARK   79  A    between atoms: _198  and  _201
REMARK   80  A    between atoms: _201  and  _202
REMARK   81  A    between atoms: _202  and  _203
REMARK   82  A    between atoms: _206  and  _208
REMARK   83  A    between atoms: _208  and  _209
REMARK   84  A    between atoms: _208  and  _211
REMARK   85  A    between atoms: _211  and  _212
REMARK   86  A    between atoms: _215  and  _217
REMARK   87  A    between atoms: _217  and  _218
REMARK   88  A    between atoms: _217  and  _220
REMARK   89  A    between atoms: _220  and  _221
REMARK   90  A    between atoms: _224  and  _226
REMARK   91  A    between atoms: _226  and  _227
REMARK   92  A    between atoms: _226  and  _229
REMARK   93  A    between atoms: _229  and  _230
REMARK   94  A    between atoms: _233  and  _235
REMARK   95  A    between atoms: _235  and  _236
REMARK   96  A    between atoms: _235  and  _238
REMARK   97  A    between atoms: _238  and  _239
REMARK   98  A    between atoms: _239  and  _240
REMARK   99  A    between atoms: _242  and  _244
REMARK  100  A    between atoms: _244  and  _245
REMARK  101  A    between atoms: _244  and  _247
REMARK  102  A    between atoms: _247  and  _248
REMARK  103  A    between atoms: _253  and  _255
REMARK  104  A    between atoms: _255  and  _256
REMARK  105  A    between atoms: _255  and  _258
REMARK  106  A    between atoms: _258  and  _259
REMARK  107  A    between atoms: _264  and  _266
REMARK  108  A    between atoms: _266  and  _267
REMARK  109  A    between atoms: _266  and  _269
REMARK  110  A    between atoms: _272  and  _274
REMARK  111  A    between atoms: _274  and  _275
REMARK  112  A    between atoms: _274  and  _277
REMARK  113  A    between atoms: _277  and  _278
REMARK  114  A    between atoms: _281  and  _283
REMARK  115  A    between atoms: _283  and  _284
REMARK  116  A    between atoms: _286  and  _288
REMARK  117  A    between atoms: _288  and  _289
REMARK  118  A    between atoms: _288  and  _291
REMARK  119  A    between atoms: _291  and  _292
REMARK  120  A    between atoms: _295  and  _297
REMARK  121  A    between atoms: _297  and  _298
REMARK  122  A    between atoms: _297  and  _300
REMARK  123  A    between atoms: _300  and  _301
REMARK  124  A    between atoms: _304  and  _306
REMARK  125  A    between atoms: _306  and  _307
REMARK  126  A    between atoms: _306  and  _309
REMARK  127  A    between atoms: _309  and  _310
REMARK  128  A    between atoms: _313  and  _315
REMARK  129  A    between atoms: _315  and  _316
REMARK  130  A    between atoms: _315  and  _318
REMARK  131  A    between atoms: _318  and  _319
REMARK  132  A    between atoms: _324  and  _325
REMARK  133  A    between atoms: _327  and  _329
REMARK  134  A    between atoms: _329  and  _330
REMARK  135  A    between atoms: _329  and  _332
REMARK  136  A    between atoms: _332  and  _333
REMARK  137  A    between atoms: _336  and  _338
REMARK  138  A    between atoms: _338  and  _339
REMARK  139  A    between atoms: _338  and  _341
REMARK  140  A    between atoms: _344  and  _346
REMARK  141  A    between atoms: _346  and  _347
REMARK  142  A    between atoms: _346  and  _349
REMARK  143  A    between atoms: _349  and  _350
REMARK  144  A    between atoms: _353  and  _355
REMARK  145  A    between atoms: _355  and  _356
REMARK  146  A    between atoms: _355  and  _358
REMARK  147  A    between atoms: _358  and  _359
REMARK  148  A    between atoms: _364  and  _366
REMARK  149  A    between atoms: _366  and  _367
REMARK  150  A    between atoms: _366  and  _369
REMARK  151  A    between atoms: _369  and  _370
REMARK  152  A    between atoms: _373  and  _375
REMARK  153  A    between atoms: _375  and  _376
REMARK  154  A    between atoms: _375  and  _378
REMARK  155  A    between atoms: _378  and  _379
REMARK  156  A    between atoms: _379  and  _380
REMARK  157  A    between atoms: _382  and  _384
REMARK  158  A    between atoms: _384  and  _385
REMARK  159  A    between atoms: _387  and  _389
REMARK  160  A    between atoms: _389  and  _390
REMARK  161  A    between atoms: _393  and  _395
REMARK  162  A    between atoms: _395  and  _396
REMARK  163  A    between atoms: _395  and  _398
REMARK  164  A    between atoms: _398  and  _399
REMARK  165  A    between atoms: _402  and  _404
REMARK  166  A    between atoms: _404  and  _405
REMARK  167  A    between atoms: _404  and  _407
REMARK  168  A    between atoms: _407  and  _408
REMARK  169  A    between atoms: _413  and  _415
REMARK  170  A    between atoms: _415  and  _416
REMARK  171  A    between atoms: _418  and  _420
REMARK  172  A    between atoms: _420  and  _421
REMARK  173  A    between atoms: _420  and  _423
REMARK  174  A    between atoms: _423  and  _424
REMARK  175  A    between atoms: _427  and  _429
REMARK  176  A    between atoms: _429  and  _430
REMARK  177  A    between atoms: _429  and  _432
REMARK  178  A    between atoms: _432  and  _433
REMARK  179  A    between atoms: _438  and  _439
REMARK  180  A    between atoms: _441  and  _443
REMARK  181  A    between atoms: _443  and  _444
REMARK  182  A    between atoms: _443  and  _446
REMARK  183  A    between atoms: _446  and  _447
REMARK  184  A    between atoms: _450  and  _452
REMARK  185  A    between atoms: _452  and  _453
REMARK  186  A    between atoms: _452  and  _455
REMARK  187  A    between atoms: _455  and  _456
REMARK  188  A    between atoms: _461  and  _463
REMARK  189  A    between atoms: _463  and  _464
REMARK  190  A    between atoms: _467  and  _469
REMARK  191  A    between atoms: _469  and  _470
REMARK  192  A    between atoms: _469  and  _472
REMARK  193  A    between atoms: _472  and  _473
REMARK  194  A    between atoms: _476  and  _478
REMARK  195  A    between atoms: _478  and  _479
REMARK  196  A    between atoms: _478  and  _481
REMARK  197  A    between atoms: _481  and  _482
REMARK  198  A    between atoms: _485  and  _487
REMARK  199  A    between atoms: _487  and  _488
REMARK  200  A    between atoms: _487  and  _490
REMARK  201  A    between atoms: _490  and  _491
REMARK  202  A    between atoms: _496  and  _498
REMARK  203  A    between atoms: _498  and  _499
REMARK  204  A    between atoms: _498  and  _501
REMARK  205  A    between atoms: _501  and  _502
REMARK  206  A    between atoms: _502  and  _503
REMARK  207  A    between atoms: _503  and  _504
REMARK  208  A    between atoms: _513  and  _515
REMARK  209  A    between atoms: _515  and  _516
REMARK  210  A    between atoms: _515  and  _518
REMARK  211  A    between atoms: _518  and  _519
REMARK  212  A    between atoms: _522  and  _524
REMARK  213  A    between atoms: _524  and  _525
REMARK  214  A    between atoms: _524  and  _527
REMARK  215  A    between atoms: _527  and  _528
REMARK  216  A    between atoms: _531  and  _533
REMARK  217  A    between atoms: _533  and  _534
REMARK  218  A    between atoms: _533  and  _536
REMARK  219  A    between atoms: _536  and  _537
REMARK  220  A    between atoms: _539  and  _541
REMARK  221  A    between atoms: _541  and  _542
REMARK  222  A    between atoms: _541  and  _544
REMARK  223  A    between atoms: _544  and  _545
REMARK  224  A    between atoms: _550  and  _552
REMARK  225  A    between atoms: _552  and  _553
REMARK  226  A    between atoms: _552  and  _555
REMARK  227  A    between atoms: _555  and  _556
REMARK  228  A    between atoms: _559  and  _561
REMARK  229  A    between atoms: _561  and  _562
REMARK  230  A    between atoms: _565  and  _567
REMARK  231  A    between atoms: _567  and  _568
REMARK  232  A    between atoms: _567  and  _570
REMARK  233  A    between atoms: _570  and  _571
REMARK  234  A    between atoms: _571  and  _572
REMARK  235  A    between atoms: _572  and  _573
REMARK  236  A    between atoms: _573  and  _574
REMARK  237  A    between atoms: _578  and  _580
REMARK  238  A    between atoms: _580  and  _581
REMARK  239  A    between atoms: _580  and  _583
REMARK  240  A    between atoms: _583  and  _584
REMARK  241  A    between atoms: _587  and  _589
REMARK  242  A    between atoms: _589  and  _590
REMARK  243  A    between atoms: _589  and  _592
REMARK  244  A    between atoms: _592  and  _593
REMARK  245  A    between atoms: _596  and  _598
REMARK  246  A    between atoms: _598  and  _599
REMARK  247  A    between atoms: _598  and  _601
REMARK  248  A    between atoms: _601  and  _602
REMARK  249  A    between atoms: _605  and  _607
REMARK  250  A    between atoms: _607  and  _608
REMARK  251  A    between atoms: _607  and  _610
REMARK  252  A    between atoms: _610  and  _611
REMARK  253  A    between atoms: _617  and  _619
REMARK  254  A    between atoms: _619  and  _620
REMARK  255  A    between atoms: _622  and  _624
REMARK  256  A    between atoms: _624  and  _625
REMARK  257  A    between atoms: _624  and  _627
REMARK  258  A    between atoms: _627  and  _628
REMARK  259  A    between atoms: _631  and  _633
REMARK  260  A    between atoms: _633  and  _634
REMARK  261  A    between atoms: _633  and  _636
REMARK  262  A    between atoms: _636  and  _637
REMARK                            x       y       z     vdW  Elec       q    Type
REMARK                         _______ _______ _______ _____ _____    ______ ____
ROOT
ATOM      1  CA  HIS A   5      40.644  39.994  33.655  0.00  0.00    +0.155 C 
ENDROOT
BRANCH   1   2
ATOM      2  C   HIS A   5      41.822  39.260  33.053  0.00  0.00    +0.241 C 
ATOM      3  O   HIS A   5      41.997  38.055  33.291  0.00  0.00    -0.273 OA
ATOM      4  N   LEU A   6      42.633  39.976  32.279  0.00  0.00    -0.297 N 
ATOM      5  H   LEU A   6      42.403  40.971  32.083  0.00  0.00    +0.150 HD
BRANCH   4   6
ATOM      6  CA  LEU A   6      43.833  39.396  31.702  0.00  0.00    +0.149 C 
BRANCH   6   7
ATOM      7  C   LEU A   6      44.955  39.413  32.727  0.00  0.00    +0.241 C 
ATOM      8  O   LEU A   6      45.292  40.469  33.272  0.00  0.00    -0.273 OA
ATOM      9  N   MET A   7      45.547  38.249  32.959  0.00  0.00    -0.297 N 
ATOM     10  H   MET A   7      45.181  37.396  32.490  0.00  0.00    +0.150 HD
BRANCH   9  11
ATOM     11  CA  MET A   7      46.700  38.126  33.855  0.00  0.00    +0.149 C 
BRANCH  11  12
ATOM     12  C   MET A   7      47.983  38.386  33.097  0.00  0.00    +0.241 C 
ATOM     13  N   GLY A   8      48.968  38.960  33.785  0.00  0.00    -0.295 N 
ATOM     14  H   GLY A   8      48.783  39.291  34.753  0.00  0.00    +0.150 HD
ATOM     15  O   MET A   7      48.084  38.073  31.905  0.00  0.00    -0.273 OA
BRANCH  13  16
ATOM     16  CA  GLY A   8      50.312  39.138  33.212  0.00  0.00    +0.176 C 
BRANCH  16  17
ATOM     17  C   GLY A   8      51.256  38.025  33.660  0.00  0.00    +0.243 C 
ATOM     18  N   ALA A   9      52.156  38.347  34.585  0.00  0.00    -0.297 N 
ATOM     19  H   ALA A   9      52.128  39.287  35.028  0.00  0.00    +0.150 HD
ATOM     20  O   GLY A   8      51.167  36.878  33.186  0.00  0.00    -0.273 OA
BRANCH  18  21
ATOM     21  CA  ALA A   9      53.177  37.394  34.979  0.00  0.00    +0.149 C 
ATOM     22  CB  ALA A   9      54.382  38.116  35.565  0.00  0.00    +0.031 C 
BRANCH  21  23
ATOM     23  C   ALA A   9      52.605  36.390  35.973  0.00  0.00    +0.241 C 
ATOM     24  O   ALA A   9      51.673  36.700  36.709  0.00  0.00    -0.273 OA
ATOM     25  N   ASP A  10      53.154  35.181  35.976  0.00  0.00    -0.298 N 
ATOM     26  H   ASP A  10      53.818  34.913  35.221  0.00  0.00    +0.150 HD
BRANCH  25  27
ATOM     27  CA  ASP A  10      52.836  34.235  37.020  0.00  0.00    +0.148 C 
BRANCH  27  28
ATOM     28  C   ASP A  10      54.000  34.198  38.005  0.00  0.00    +0.227 C 
ATOM     29  O   ASP A  10      55.033  34.826  37.768  0.00  0.00    -0.286 OA
ENDBRANCH  27  28
BRANCH  27  30
ATOM     30  CB  ASP A  10      52.476  32.850  36.453  0.00  0.00    +0.142 C 
BRANCH  30  31
ATOM     31  CG  ASP A  10      53.619  32.194  35.708  0.00  0.00    +0.367 C 
ATOM     32  OD2 ASP A  10      54.772  32.295  36.155  0.00  0.00    -0.246 OA
ATOM     33  OD1 ASP A  10      53.361  31.551  34.679  0.00  0.00    -0.246 OA
ENDBRANCH  30  31
ENDBRANCH  27  30
ENDBRANCH  25  27
ENDBRANCH  21  23
ENDBRANCH  18  21
ENDBRANCH  16  17
ENDBRANCH  13  16
ENDBRANCH  11  12
BRANCH  11  34
ATOM     34  CB  MET A   7      46.749  36.716  34.455  0.00  0.00    +0.041 C 
BRANCH  34  35
ATOM     35  CG  MET A   7      45.466  36.269  35.101  0.00  0.00    +0.060 C 
BRANCH  35  36
ATOM     36  SD  MET A   7      45.032  37.243  36.558  0.00  0.00    -0.139 S 
ATOM     37  CE  MET A   7      43.684  38.259  36.005  0.00  0.00    +0.069 C 
ENDBRANCH  35  36
ENDBRANCH  34  35
ENDBRANCH  11  34
ENDBRANCH   9  11
ENDBRANCH   6   7
BRANCH   6  38
ATOM     38  CB  LEU A   6      44.272  40.166  30.447  0.00  0.00    +0.029 C 
BRANCH  38  39
ATOM     39  CG  LEU A   6      45.518  39.603  29.751  0.00  0.00    +0.002 C 
ATOM     40  CD2 LEU A   6      45.229  38.271  29.042  0.00  0.00    +0.000 C 
ATOM     41  CD1 LEU A   6      46.114  40.605  28.788  0.00  0.00    +0.000 C 
ENDBRANCH  38  39
ENDBRANCH   6  38
ENDBRANCH   4   6
ENDBRANCH   1   2
BRANCH   1  43
ATOM     42  C   THR A   4      39.080  38.389  32.687  0.00  0.00    +0.243 C 
ATOM     43  N   HIS A   5      39.503  39.066  33.752  0.00  0.00    -0.297 N 
ATOM     44  H   HIS A   5      39.022  38.938  34.665  0.00  0.00    +0.150 HD
ATOM     45  O   THR A   4      39.423  38.670  31.532  0.00  0.00    -0.273 OA
BRANCH  42  46
ATOM     46  CA  THR A   4      38.152  37.212  32.952  0.00  0.00    +0.176 C 
BRANCH  46  49
ATOM     47  C   VAL A   3      36.304  36.516  31.524  0.00  0.00    +0.241 C 
ATOM     48  O   VAL A   3      35.485  36.604  32.433  0.00  0.00    -0.273 OA
ATOM     49  N   THR A   4      37.604  36.730  31.689  0.00  0.00    -0.295 N 
ATOM     50  H   THR A   4      38.250  36.549  30.895  0.00  0.00    +0.150 HD
BRANCH  47  51
ATOM     51  CA  VAL A   3      35.853  36.154  30.126  0.00  0.00    +0.149 C 
BRANCH  51  53
ATOM     52  C   LEU A   2      35.414  33.846  29.519  0.00  0.00    +0.241 C 
ATOM     53  N   VAL A   3      35.050  34.934  30.181  0.00  0.00    -0.297 N 
ATOM     54  H   VAL A   3      34.179  34.920  30.749  0.00  0.00    +0.150 HD
ATOM     55  O   LEU A   2      36.467  33.772  28.879  0.00  0.00    -0.273 OA
BRANCH  52  56
ATOM     56  CA  LEU A   2      34.469  32.650  29.592  0.00  0.00    +0.149 C 
BRANCH  56  58
ATOM     57  C   TYR A   1      33.163  32.106  27.613  0.00  0.00    +0.239 C 
ATOM     58  N   LEU A   2      34.316  32.080  28.256  0.00  0.00    -0.297 N 
ATOM     59  H   LEU A   2      35.140  31.641  27.798  0.00  0.00    +0.150 HD
ATOM     60  O   TYR A   1      32.166  32.617  28.077  0.00  0.00    -0.274 OA
BRANCH  57  61
ATOM     61  CA  TYR A   1      33.143  31.470  26.234  0.00  0.00    +0.149 C 
BRANCH  61  62
ATOM     62  N   TYR A   1      32.004  30.590  26.134  0.00  0.00    -0.238 NA
ATOM     63  H   TYR A   1      31.055  30.986  26.290  0.00  0.00    +0.142 HD
ENDBRANCH  61  62
BRANCH  61  64
ATOM     64  CB  TYR A   1      33.040  32.584  25.187  0.00  0.00    +0.053 C 
BRANCH  64  65
ATOM     65  CG  TYR A   1      33.169  32.171  23.733  0.00  0.00    -0.020 A 
ATOM     66  CD2 TYR A   1      32.106  31.589  23.057  0.00  0.00    -0.001 A 
ATOM     67  CE2 TYR A   1      32.209  31.267  21.691  0.00  0.00    +0.036 A 
ATOM     68  CZ  TYR A   1      33.392  31.510  21.002  0.00  0.00    +0.134 A 
ATOM     69  CE1 TYR A   1      34.467  32.092  21.653  0.00  0.00    +0.036 A 
ATOM     70  CD1 TYR A   1      34.340  32.439  23.015  0.00  0.00    -0.001 A 
BRANCH  68  71
ATOM     71  OH  TYR A   1      33.498  31.181  19.657  0.00  0.00    -0.506 OA
ATOM     72  HH  TYR A   1      32.648  30.778  19.349  0.00  0.00    +0.292 HD
ENDBRANCH  68  71
ENDBRANCH  64  65
ENDBRANCH  61  64
ENDBRANCH  57  61
ENDBRANCH  56  58
BRANCH  56  73
ATOM     73  CB  LEU A   2      35.031  31.585  30.547  0.00  0.00    +0.029 C 
BRANCH  73  74
ATOM     74  CG  LEU A   2      34.229  30.274  30.676  0.00  0.00    +0.002 C 
ATOM     75  CD2 LEU A   2      35.085  29.239  31.397  0.00  0.00    +0.000 C 
ATOM     76  CD1 LEU A   2      32.908  30.505  31.391  0.00  0.00    +0.000 C 
ENDBRANCH  73  74
ENDBRANCH  56  73
ENDBRANCH  52  56
ENDBRANCH  51  53
BRANCH  51  77
ATOM     77  CB  VAL A   3      35.078  37.360  29.502  0.00  0.00    +0.027 C 
ATOM     78  CG2 VAL A   3      35.998  38.601  29.379  0.00  0.00    +0.002 C 
ATOM     79  CG1 VAL A   3      34.495  36.991  28.118  0.00  0.00    +0.002 C 
ENDBRANCH  51  77
ENDBRANCH  47  51
ENDBRANCH  46  49
BRANCH  46  80
ATOM     80  CB  THR A   4      38.979  36.118  33.656  0.00  0.00    +0.137 C 
ATOM     81  CG2 THR A   4      38.178  34.784  33.755  0.00  0.00    +0.034 C 
BRANCH  80  82
ATOM     82  OG1 THR A   4      40.190  35.910  32.923  0.00  0.00    -0.382 OA
ATOM     83  HG1 THR A   4      40.706  36.754  32.894  0.00  0.00    +0.210 HD
ENDBRANCH  80  82
ENDBRANCH  46  80
ENDBRANCH  42  46
ENDBRANCH   1  43
BRANCH   1  84
ATOM     84  CB  HIS A   5      41.057  40.486  35.038  0.00  0.00    +0.076 C 
BRANCH  84  85
ATOM     85  CG  HIS A   5      40.111  41.471  35.641  0.00  0.00    +0.082 A 
ATOM     86  CD2 HIS A   5      39.190  41.335  36.624  0.00  0.00    +0.115 A 
ATOM     87  NE2 HIS A   5      38.615  42.568  36.814  0.00  0.00    -0.221 NA
ATOM     88  CE1 HIS A   5      39.168  43.432  35.980  0.00  0.00    +0.199 A 
ATOM     89  ND1 HIS A   5      40.082  42.798  35.265  0.00  0.00    -0.227 NA
ENDBRANCH  84  85
ENDBRANCH   1  84
TORSDOF 37
REMARK  Name = ../refined-set-2016/3e93/3e93_pocket.pdb
REMARK  262 active torsions:
REMARK  status: ('A' for Active; 'I' for Inactive)
REMARK    1  A    between atoms: _1  and  _3
REMARK    2  A    between atoms: _3  and  _4
REMARK    3  A    between atoms: _3  and  _6
REMARK    4  A    between atoms: _6  and  _7
REMARK    5  A    between atoms: _17  and  _19
REMARK    6  A    between atoms: _19  and  _20
REMARK    7  A    between atoms: _19  and  _22
REMARK    8  A    between atoms: _22  and  _23
REMARK    9  A    between atoms: _26  and  _27
REMARK   10  A    between atoms: _32  and  _34
REMARK   11  A    between atoms: _34  and  _35
REMARK   12  A    between atoms: _34  and  _37
REMARK   13  A    between atoms: _40  and  _42
REMARK   14  A    between atoms: _42  and  _43
REMARK   15  A    between atoms: _45  and  _47
REMARK   16  A    between atoms: _47  and  _48
REMARK   17  A    between atoms: _47  and  _50
REMARK   18  A    between atoms: _50  and  _51
REMARK   19  A    between atoms: _53  and  _55
REMARK   20  A    between atoms: _55  and  _56
REMARK   21  A    between atoms: _55  and  _58
REMARK   22  A    between atoms: _58  and  _59
REMARK   23  A    between atoms: _61  and  _63
REMARK   24  A    between atoms: _63  and  _64
REMARK   25  A    between atoms: _63  and  _66
REMARK   26  A    between atoms: _69  and  _71
REMARK   27  A    between atoms: _71  and  _72
REMARK   28  A    between atoms: _71  and  _74
REMARK   29  A    between atoms: _76  and  _78
REMARK   30  A    between atoms: _78  and  _79
REMARK   31  A    between atoms: _82  and  _84
REMARK   32  A    between atoms: _84  and  _85
REMARK   33  A    between atoms: _88  and  _90
REMARK   34  A    between atoms: _90  and  _91
REMARK   35  A    between atoms: _90  and  _93
REMARK   36  A    between atoms: _93  and  _94
REMARK   37  A    between atoms: _94  and  _95
REMARK   38  A    between atoms: _95  and  _96
REMARK   39  A    between atoms: _105  and  _107
REMARK   40  A    between atoms: _107  and  _108
REMARK   41  A    between atoms: _107  and  _110
REMARK   42  A    between atoms: _113  and  _115
REMARK   43  A    between atoms: _115  and  _116
REMARK   44  A    between atoms: _119  and  _121
REMARK   45  A    between atoms: _121  and  _122
REMARK   46  A    between atoms: _121  and  _124
REMARK   47  A    between atoms: _127  and  _129
REMARK   48  A    between atoms: _129  and  _130
REMARK   49  A    between atoms: _129  and  _132
REMARK   50  A    between atoms: _132  and  _133
REMARK   51  A    between atoms: _133  and  _134
REMARK   52  A    between atoms: _134  and  _135
REMARK   53  A    between atoms: _135  and  _136
REMARK   54  A    between atoms: _140  and  _142
REMARK   55  A    between atoms: _142  and  _143
REMARK   56  A    between atoms: _142  and  _145
REMARK   57  A    between atoms: _145  and  _146
REMARK   58  A    between atoms: _146  and  _147
REMARK   59  A    between atoms: _147  and  _148
REMARK   60  A    between atoms: _148  and  _149
REMARK   61  A    between atoms: _153  and  _155
REMARK   62  A    between atoms: _155  and  _156
REMARK   63  A    between atoms: _155  and  _158
REMARK   64  A    between atoms: _158  and  _159
REMARK   65  A    between atoms: _162  and  _164
REMARK   66  A    between atoms: _164  and  _165
REMARK   67  A    between atoms: _164  and  _167
REMARK   68  A    between atoms: _167  and  _168
REMARK   69  A    between atoms: _168  and  _169
REMARK   70  A    between atoms: _169  and  _170
REMARK   71  A    between atoms: _179  and  _181
REMARK   72  A    between atoms: _181  and  _182
REMARK   73  A    between atoms: _181  and  _184
REMARK   74  A    between atoms: _184  and  _185
REMARK   75  A    between atoms: _185  and  _186
REMARK   76  A    between atoms: _186  and  _187
REMARK   77  A    between atoms: _196  and  _198
REMARK   78  A    between atoms: _198  and  _199
REMARK   79  A    between atoms: _198  and  _201
REMARK   80  A    between atoms: _201  and  _202
REMARK   81  A    between atoms: _202  and  _203
REMARK   82  A    between atoms: _206  and  _208
REMARK   83  A    between atoms: _208  and  _209
REMARK   84  A    between atoms: _208  and  _211
REMARK   85  A    between atoms: _211  and  _212
REMARK   86  A    between atoms: _215  and  _217
REMARK   87  A    between atoms: _217  and  _218
REMARK   88  A    between atoms: _217  and  _220
REMARK   89  A    between atoms: _220  and  _221
REMARK   90  A    between atoms: _224  and  _226
REMARK   91  A    between atoms: _226  and  _227
REMARK   92  A    between atoms: _226  and  _229
REMARK   93  A    between atoms: _229  and  _230
REMARK   94  A    between atoms: _233  and  _235
REMARK   95  A    between atoms: _235  and  _236
REMARK   96  A    between atoms: _235  and  _238
REMARK   97  A    between atoms: _238  and  _239
REMARK   98  A    between atoms: _239  and  _240
REMARK   99  A    between atoms: _242  and  _244
REMARK  100  A    between atoms: _244  and  _245
REMARK  101  A    between atoms: _244  and  _247
REMARK  102  A    between atoms: _247  and  _248
REMARK  103  A    between atoms: _253  and  _255
REMARK  104  A    between atoms: _255  and  _256
REMARK  105  A    between atoms: _255  and  _258
REMARK  106  A    between atoms: _258  and  _259
REMARK  107  A    between atoms: _264  and  _266
REMARK  108  A    between atoms: _266  and  _267
REMARK  109  A    between atoms: _266  and  _269
REMARK  110  A    between atoms: _272  and  _274
REMARK  111  A    between atoms: _274  and  _275
REMARK  112  A    between atoms: _274  and  _277
REMARK  113  A    between atoms: _277  and  _278
REMARK  114  A    between atoms: _281  and  _283
REMARK  115  A    between atoms: _283  and  _284
REMARK  116  A    between atoms: _286  and  _288
REMARK  117  A    between atoms: _288  and  _289
REMARK  118  A    between atoms: _288  and  _291
REMARK  119  A    between atoms: _291  and  _292
REMARK  120  A    between atoms: _295  and  _297
REMARK  121  A    between atoms: _297  and  _298
REMARK  122  A    between atoms: _297  and  _300
REMARK  123  A    between atoms: _300  and  _301
REMARK  124  A    between atoms: _304  and  _306
REMARK  125  A    between atoms: _306  and  _307
REMARK  126  A    between atoms: _306  and  _309
REMARK  127  A    between atoms: _309  and  _310
REMARK  128  A    between atoms: _313  and  _315
REMARK  129  A    between atoms: _315  and  _316
REMARK  130  A    between atoms: _315  and  _318
REMARK  131  A    between atoms: _318  and  _319
REMARK  132  A    between atoms: _324  and  _325
REMARK  133  A    between atoms: _327  and  _329
REMARK  134  A    between atoms: _329  and  _330
REMARK  135  A    between atoms: _329  and  _332
REMARK  136  A    between atoms: _332  and  _333
REMARK  137  A    between atoms: _336  and  _338
REMARK  138  A    between atoms: _338  and  _339
REMARK  139  A    between atoms: _338  and  _341
REMARK  140  A    between atoms: _344  and  _346
REMARK  141  A    between atoms: _346  and  _347
REMARK  142  A    between atoms: _346  and  _349
REMARK  143  A    between atoms: _349  and  _350
REMARK  144  A    between atoms: _353  and  _355
REMARK  145  A    between atoms: _355  and  _356
REMARK  146  A    between atoms: _355  and  _358
REMARK  147  A    between atoms: _358  and  _359
REMARK  148  A    between atoms: _364  and  _366
REMARK  149  A    between atoms: _366  and  _367
REMARK  150  A    between atoms: _366  and  _369
REMARK  151  A    between atoms: _369  and  _370
REMARK  152  A    between atoms: _373  and  _375
REMARK  153  A    between atoms: _375  and  _376
REMARK  154  A    between atoms: _375  and  _378
REMARK  155  A    between atoms: _378  and  _379
REMARK  156  A    between atoms: _379  and  _380
REMARK  157  A    between atoms: _382  and  _384
REMARK  158  A    between atoms: _384  and  _385
REMARK  159  A    between atoms: _387  and  _389
REMARK  160  A    between atoms: _389  and  _390
REMARK  161  A    between atoms: _393  and  _395
REMARK  162  A    between atoms: _395  and  _396
REMARK  163  A    between atoms: _395  and  _398
REMARK  164  A    between atoms: _398  and  _399
REMARK  165  A    between atoms: _402  and  _404
REMARK  166  A    between atoms: _404  and  _405
REMARK  167  A    between atoms: _404  and  _407
REMARK  168  A    between atoms: _407  and  _408
REMARK  169  A    between atoms: _413  and  _415
REMARK  170  A    between atoms: _415  and  _416
REMARK  171  A    between atoms: _418  and  _420
REMARK  172  A    between atoms: _420  and  _421
REMARK  173  A    between atoms: _420  and  _423
REMARK  174  A    between atoms: _423  and  _424
REMARK  175  A    between atoms: _427  and  _429
REMARK  176  A    between atoms: _429  and  _430
REMARK  177  A    between atoms: _429  and  _432
REMARK  178  A    between atoms: _432  and  _433
REMARK  179  A    between atoms: _438  and  _439
REMARK  180  A    between atoms: _441  and  _443
REMARK  181  A    between atoms: _443  and  _444
REMARK  182  A    between atoms: _443  and  _446
REMARK  183  A    between atoms: _446  and  _447
REMARK  184  A    between atoms: _450  and  _452
REMARK  185  A    between atoms: _452  and  _453
REMARK  186  A    between atoms: _452  and  _455
REMARK  187  A    between atoms: _455  and  _456
REMARK  188  A    between atoms: _461  and  _463
REMARK  189  A    between atoms: _463  and  _464
REMARK  190  A    between atoms: _467  and  _469
REMARK  191  A    between atoms: _469  and  _470
REMARK  192  A    between atoms: _469  and  _472
REMARK  193  A    between atoms: _472  and  _473
REMARK  194  A    between atoms: _476  and  _478
REMARK  195  A    between atoms: _478  and  _479
REMARK  196  A    between atoms: _478  and  _481
REMARK  197  A    between atoms: _481  and  _482
REMARK  198  A    between atoms: _485  and  _487
REMARK  199  A    between atoms: _487  and  _488
REMARK  200  A    between atoms: _487  and  _490
REMARK  201  A    between atoms: _490  and  _491
REMARK  202  A    between atoms: _496  and  _498
REMARK  203  A    between atoms: _498  and  _499
REMARK  204  A    between atoms: _498  and  _501
REMARK  205  A    between atoms: _501  and  _502
REMARK  206  A    between atoms: _502  and  _503
REMARK  207  A    between atoms: _503  and  _504
REMARK  208  A    between atoms: _513  and  _515
REMARK  209  A    between atoms: _515  and  _516
REMARK  210  A    between atoms: _515  and  _518
REMARK  211  A    between atoms: _518  and  _519
REMARK  212  A    between atoms: _522  and  _524
REMARK  213  A    between atoms: _524  and  _525
REMARK  214  A    between atoms: _524  and  _527
REMARK  215  A    between atoms: _527  and  _528
REMARK  216  A    between atoms: _531  and  _533
REMARK  217  A    between atoms: _533  and  _534
REMARK  218  A    between atoms: _533  and  _536
REMARK  219  A    between atoms: _536  and  _537
REMARK  220  A    between atoms: _539  and  _541
REMARK  221  A    between atoms: _541  and  _542
REMARK  222  A    between atoms: _541  and  _544
REMARK  223  A    between atoms: _544  and  _545
REMARK  224  A    between atoms: _550  and  _552
REMARK  225  A    between atoms: _552  and  _553
REMARK  226  A    between atoms: _552  and  _555
REMARK  227  A    between atoms: _555  and  _556
REMARK  228  A    between atoms: _559  and  _561
REMARK  229  A    between atoms: _561  and  _562
REMARK  230  A    between atoms: _565  and  _567
REMARK  231  A    between atoms: _567  and  _568
REMARK  232  A    between atoms: _567  and  _570
REMARK  233  A    between atoms: _570  and  _571
REMARK  234  A    between atoms: _571  and  _572
REMARK  235  A    between atoms: _572  and  _573
REMARK  236  A    between atoms: _573  and  _574
REMARK  237  A    between atoms: _578  and  _580
REMARK  238  A    between atoms: _580  and  _581
REMARK  239  A    between atoms: _580  and  _583
REMARK  240  A    between atoms: _583  and  _584
REMARK  241  A    between atoms: _587  and  _589
REMARK  242  A    between atoms: _589  and  _590
REMARK  243  A    between atoms: _589  and  _592
REMARK  244  A    between atoms: _592  and  _593
REMARK  245  A    between atoms: _596  and  _598
REMARK  246  A    between atoms: _598  and  _599
REMARK  247  A    between atoms: _598  and  _601
REMARK  248  A    between atoms: _601  and  _602
REMARK  249  A    between atoms: _605  and  _607
REMARK  250  A    between atoms: _607  and  _608
REMARK  251  A    between atoms: _607  and  _610
REMARK  252  A    between atoms: _610  and  _611
REMARK  253  A    between atoms: _617  and  _619
REMARK  254  A    between atoms: _619  and  _620
REMARK  255  A    between atoms: _622  and  _624
REMARK  256  A    between atoms: _624  and  _625
REMARK  257  A    between atoms: _624  and  _627
REMARK  258  A    between atoms: _627  and  _628
REMARK  259  A    between atoms: _631  and  _633
REMARK  260  A    between atoms: _633  and  _634
REMARK  261  A    between atoms: _633  and  _636
REMARK  262  A    between atoms: _636  and  _637
REMARK                            x       y       z     vdW  Elec       q    Type
REMARK                         _______ _______ _______ _____ _____    ______ ____
ROOT
ATOM      1  CB  ASN A   1      57.295  35.272  35.448  0.00  0.00    +0.110 C 
ENDROOT
BRANCH   1   2
ATOM      2  CG  ASN A   1      56.486  34.480  34.406  0.00  0.00    +0.221 C 
ATOM      3  OD1 ASN A   1      55.400  34.908  33.997  0.00  0.00    -0.275 OA
ATOM      4  ND2 ASN A   1      57.014  33.334  33.971  0.00  0.00    -0.329 N 
ATOM      5 HD21 ASN A   1      57.930  33.010  34.341  0.00  0.00    +0.145 HD
ATOM      6 HD22 ASN A   1      56.509  32.765  33.262  0.00  0.00    +0.145 HD
ENDBRANCH   1   2
BRANCH   1   7
ATOM      7  CA  ASN A   1      58.260  34.391  36.268  0.00  0.00    +0.142 C 
BRANCH   7   8
ATOM      8  N   ASN A   1      57.566  33.242  36.819  0.00  0.00    -0.239 NA
ATOM      9  H   ASN A   1      56.559  33.114  36.594  0.00  0.00    +0.142 HD
ENDBRANCH   7   8
BRANCH   7  10
ATOM     10  C   ASN A   1      58.904  35.203  37.392  0.00  0.00    +0.225 C 
ATOM     11  O   ASN A   1      60.051  35.621  37.292  0.00  0.00    -0.287 OA
ENDBRANCH   7  10
ENDBRANCH   1   7
TORSDOF 4
REMARK  Name = ../refined-set-2016/3e93/3e93_pocket.pdb
REMARK  262 active torsions:
REMARK  status: ('A' for Active; 'I' for Inactive)
REMARK    1  A    between atoms: _1  and  _3
REMARK    2  A    between atoms: _3  and  _4
REMARK    3  A    between atoms: _3  and  _6
REMARK    4  A    between atoms: _6  and  _7
REMARK    5  A    between atoms: _17  and  _19
REMARK    6  A    between atoms: _19  and  _20
REMARK    7  A    between atoms: _19  and  _22
REMARK    8  A    between atoms: _22  and  _23
REMARK    9  A    between atoms: _26  and  _27
REMARK   10  A    between atoms: _32  and  _34
REMARK   11  A    between atoms: _34  and  _35
REMARK   12  A    between atoms: _34  and  _37
REMARK   13  A    between atoms: _40  and  _42
REMARK   14  A    between atoms: _42  and  _43
REMARK   15  A    between atoms: _45  and  _47
REMARK   16  A    between atoms: _47  and  _48
REMARK   17  A    between atoms: _47  and  _50
REMARK   18  A    between atoms: _50  and  _51
REMARK   19  A    between atoms: _53  and  _55
REMARK   20  A    between atoms: _55  and  _56
REMARK   21  A    between atoms: _55  and  _58
REMARK   22  A    between atoms: _58  and  _59
REMARK   23  A    between atoms: _61  and  _63
REMARK   24  A    between atoms: _63  and  _64
REMARK   25  A    between atoms: _63  and  _66
REMARK   26  A    between atoms: _69  and  _71
REMARK   27  A    between atoms: _71  and  _72
REMARK   28  A    between atoms: _71  and  _74
REMARK   29  A    between atoms: _76  and  _78
REMARK   30  A    between atoms: _78  and  _79
REMARK   31  A    between atoms: _82  and  _84
REMARK   32  A    between atoms: _84  and  _85
REMARK   33  A    between atoms: _88  and  _90
REMARK   34  A    between atoms: _90  and  _91
REMARK   35  A    between atoms: _90  and  _93
REMARK   36  A    between atoms: _93  and  _94
REMARK   37  A    between atoms: _94  and  _95
REMARK   38  A    between atoms: _95  and  _96
REMARK   39  A    between atoms: _105  and  _107
REMARK   40  A    between atoms: _107  and  _108
REMARK   41  A    between atoms: _107  and  _110
REMARK   42  A    between atoms: _113  and  _115
REMARK   43  A    between atoms: _115  and  _116
REMARK   44  A    between atoms: _119  and  _121
REMARK   45  A    between atoms: _121  and  _122
REMARK   46  A    between atoms: _121  and  _124
REMARK   47  A    between atoms: _127  and  _129
REMARK   48  A    between atoms: _129  and  _130
REMARK   49  A    between atoms: _129  and  _132
REMARK   50  A    between atoms: _132  and  _133
REMARK   51  A    between atoms: _133  and  _134
REMARK   52  A    between atoms: _134  and  _135
REMARK   53  A    between atoms: _135  and  _136
REMARK   54  A    between atoms: _140  and  _142
REMARK   55  A    between atoms: _142  and  _143
REMARK   56  A    between atoms: _142  and  _145
REMARK   57  A    between atoms: _145  and  _146
REMARK   58  A    between atoms: _146  and  _147
REMARK   59  A    between atoms: _147  and  _148
REMARK   60  A    between atoms: _148  and  _149
REMARK   61  A    between atoms: _153  and  _155
REMARK   62  A    between atoms: _155  and  _156
REMARK   63  A    between atoms: _155  and  _158
REMARK   64  A    between atoms: _158  and  _159
REMARK   65  A    between atoms: _162  and  _164
REMARK   66  A    between atoms: _164  and  _165
REMARK   67  A    between atoms: _164  and  _167
REMARK   68  A    between atoms: _167  and  _168
REMARK   69  A    between atoms: _168  and  _169
REMARK   70  A    between atoms: _169  and  _170
REMARK   71  A    between atoms: _179  and  _181
REMARK   72  A    between atoms: _181  and  _182
REMARK   73  A    between atoms: _181  and  _184
REMARK   74  A    between atoms: _184  and  _185
REMARK   75  A    between atoms: _185  and  _186
REMARK   76  A    between atoms: _186  and  _187
REMARK   77  A    between atoms: _196  and  _198
REMARK   78  A    between atoms: _198  and  _199
REMARK   79  A    between atoms: _198  and  _201
REMARK   80  A    between atoms: _201  and  _202
REMARK   81  A    between atoms: _202  and  _203
REMARK   82  A    between atoms: _206  and  _208
REMARK   83  A    between atoms: _208  and  _209
REMARK   84  A    between atoms: _208  and  _211
REMARK   85  A    between atoms: _211  and  _212
REMARK   86  A    between atoms: _215  and  _217
REMARK   87  A    between atoms: _217  and  _218
REMARK   88  A    between atoms: _217  and  _220
REMARK   89  A    between atoms: _220  and  _221
REMARK   90  A    between atoms: _224  and  _226
REMARK   91  A    between atoms: _226  and  _227
REMARK   92  A    between atoms: _226  and  _229
REMARK   93  A    between atoms: _229  and  _230
REMARK   94  A    between atoms: _233  and  _235
REMARK   95  A    between atoms: _235  and  _236
REMARK   96  A    between atoms: _235  and  _238
REMARK   97  A    between atoms: _238  and  _239
REMARK   98  A    between atoms: _239  and  _240
REMARK   99  A    between atoms: _242  and  _244
REMARK  100  A    between atoms: _244  and  _245
REMARK  101  A    between atoms: _244  and  _247
REMARK  102  A    between atoms: _247  and  _248
REMARK  103  A    between atoms: _253  and  _255
REMARK  104  A    between atoms: _255  and  _256
REMARK  105  A    between atoms: _255  and  _258
REMARK  106  A    between atoms: _258  and  _259
REMARK  107  A    between atoms: _264  and  _266
REMARK  108  A    between atoms: _266  and  _267
REMARK  109  A    between atoms: _266  and  _269
REMARK  110  A    between atoms: _272  and  _274
REMARK  111  A    between atoms: _274  and  _275
REMARK  112  A    between atoms: _274  and  _277
REMARK  113  A    between atoms: _277  and  _278
REMARK  114  A    between atoms: _281  and  _283
REMARK  115  A    between atoms: _283  and  _284
REMARK  116  A    between atoms: _286  and  _288
REMARK  117  A    between atoms: _288  and  _289
REMARK  118  A    between atoms: _288  and  _291
REMARK  119  A    between atoms: _291  and  _292
REMARK  120  A    between atoms: _295  and  _297
REMARK  121  A    between atoms: _297  and  _298
REMARK  122  A    between atoms: _297  and  _300
REMARK  123  A    between atoms: _300  and  _301
REMARK  124  A    between atoms: _304  and  _306
REMARK  125  A    between atoms: _306  and  _307
REMARK  126  A    between atoms: _306  and  _309
REMARK  127  A    between atoms: _309  and  _310
REMARK  128  A    between atoms: _313  and  _315
REMARK  129  A    between atoms: _315  and  _316
REMARK  130  A    between atoms: _315  and  _318
REMARK  131  A    between atoms: _318  and  _319
REMARK  132  A    between atoms: _324  and  _325
REMARK  133  A    between atoms: _327  and  _329
REMARK  134  A    between atoms: _329  and  _330
REMARK  135  A    between atoms: _329  and  _332
REMARK  136  A    between atoms: _332  and  _333
REMARK  137  A    between atoms: _336  and  _338
REMARK  138  A    between atoms: _338  and  _339
REMARK  139  A    between atoms: _338  and  _341
REMARK  140  A    between atoms: _344  and  _346
REMARK  141  A    between atoms: _346  and  _347
REMARK  142  A    between atoms: _346  and  _349
REMARK  143  A    between atoms: _349  and  _350
REMARK  144  A    between atoms: _353  and  _355
REMARK  145  A    between atoms: _355  and  _356
REMARK  146  A    between atoms: _355  and  _358
REMARK  147  A    between atoms: _358  and  _359
REMARK  148  A    between atoms: _364  and  _366
REMARK  149  A    between atoms: _366  and  _367
REMARK  150  A    between atoms: _366  and  _369
REMARK  151  A    between atoms: _369  and  _370
REMARK  152  A    between atoms: _373  and  _375
REMARK  153  A    between atoms: _375  and  _376
REMARK  154  A    between atoms: _375  and  _378
REMARK  155  A    between atoms: _378  and  _379
REMARK  156  A    between atoms: _379  and  _380
REMARK  157  A    between atoms: _382  and  _384
REMARK  158  A    between atoms: _384  and  _385
REMARK  159  A    between atoms: _387  and  _389
REMARK  160  A    between atoms: _389  and  _390
REMARK  161  A    between atoms: _393  and  _395
REMARK  162  A    between atoms: _395  and  _396
REMARK  163  A    between atoms: _395  and  _398
REMARK  164  A    between atoms: _398  and  _399
REMARK  165  A    between atoms: _402  and  _404
REMARK  166  A    between atoms: _404  and  _405
REMARK  167  A    between atoms: _404  and  _407
REMARK  168  A    between atoms: _407  and  _408
REMARK  169  A    between atoms: _413  and  _415
REMARK  170  A    between atoms: _415  and  _416
REMARK  171  A    between atoms: _418  and  _420
REMARK  172  A    between atoms: _420  and  _421
REMARK  173  A    between atoms: _420  and  _423
REMARK  174  A    between atoms: _423  and  _424
REMARK  175  A    between atoms: _427  and  _429
REMARK  176  A    between atoms: _429  and  _430
REMARK  177  A    between atoms: _429  and  _432
REMARK  178  A    between atoms: _432  and  _433
REMARK  179  A    between atoms: _438  and  _439
REMARK  180  A    between atoms: _441  and  _443
REMARK  181  A    between atoms: _443  and  _444
REMARK  182  A    between atoms: _443  and  _446
REMARK  183  A    between atoms: _446  and  _447
REMARK  184  A    between atoms: _450  and  _452
REMARK  185  A    between atoms: _452  and  _453
REMARK  186  A    between atoms: _452  and  _455
REMARK  187  A    between atoms: _455  and  _456
REMARK  188  A    between atoms: _461  and  _463
REMARK  189  A    between atoms: _463  and  _464
REMARK  190  A    between atoms: _467  and  _469
REMARK  191  A    between atoms: _469  and  _470
REMARK  192  A    between atoms: _469  and  _472
REMARK  193  A    between atoms: _472  and  _473
REMARK  194  A    between atoms: _476  and  _478
REMARK  195  A    between atoms: _478  and  _479
REMARK  196  A    between atoms: _478  and  _481
REMARK  197  A    between atoms: _481  and  _482
REMARK  198  A    between atoms: _485  and  _487
REMARK  199  A    between atoms: _487  and  _488
REMARK  200  A    between atoms: _487  and  _490
REMARK  201  A    between atoms: _490  and  _491
REMARK  202  A    between atoms: _496  and  _498
REMARK  203  A    between atoms: _498  and  _499
REMARK  204  A    between atoms: _498  and  _501
REMARK  205  A    between atoms: _501  and  _502
REMARK  206  A    between atoms: _502  and  _503
REMARK  207  A    between atoms: _503  and  _504
REMARK  208  A    between atoms: _513  and  _515
REMARK  209  A    between atoms: _515  and  _516
REMARK  210  A    between atoms: _515  and  _518
REMARK  211  A    between atoms: _518  and  _519
REMARK  212  A    between atoms: _522  and  _524
REMARK  213  A    between atoms: _524  and  _525
REMARK  214  A    between atoms: _524  and  _527
REMARK  215  A    between atoms: _527  and  _528
REMARK  216  A    between atoms: _531  and  _533
REMARK  217  A    between atoms: _533  and  _534
REMARK  218  A    between atoms: _533  and  _536
REMARK  219  A    between atoms: _536  and  _537
REMARK  220  A    between atoms: _539  and  _541
REMARK  221  A    between atoms: _541  and  _542
REMARK  222  A    between atoms: _541  and  _544
REMARK  223  A    between atoms: _544  and  _545
REMARK  224  A    between atoms: _550  and  _552
REMARK  225  A    between atoms: _552  and  _553
REMARK  226  A    between atoms: _552  and  _555
REMARK  227  A    between atoms: _555  and  _556
REMARK  228  A    between atoms: _559  and  _561
REMARK  229  A    between atoms: _561  and  _562
REMARK  230  A    between atoms: _565  and  _567
REMARK  231  A    between atoms: _567  and  _568
REMARK  232  A    between atoms: _567  and  _570
REMARK  233  A    between atoms: _570  and  _571
REMARK  234  A    between atoms: _571  and  _572
REMARK  235  A    between atoms: _572  and  _573
REMARK  236  A    between atoms: _573  and  _574
REMARK  237  A    between atoms: _578  and  _580
REMARK  238  A    between atoms: _580  and  _581
REMARK  239  A    between atoms: _580  and  _583
REMARK  240  A    between atoms: _583  and  _584
REMARK  241  A    between atoms: _587  and  _589
REMARK  242  A    between atoms: _589  and  _590
REMARK  243  A    between atoms: _589  and  _592
REMARK  244  A    between atoms: _592  and  _593
REMARK  245  A    between atoms: _596  and  _598
REMARK  246  A    between atoms: _598  and  _599
REMARK  247  A    between atoms: _598  and  _601
REMARK  248  A    between atoms: _601  and  _602
REMARK  249  A    between atoms: _605  and  _607
REMARK  250  A    between atoms: _607  and  _608
REMARK  251  A    between atoms: _607  and  _610
REMARK  252  A    between atoms: _610  and  _611
REMARK  253  A    between atoms: _617  and  _619
REMARK  254  A    between atoms: _619  and  _620
REMARK  255  A    between atoms: _622  and  _624
REMARK  256  A    between atoms: _624  and  _625
REMARK  257  A    between atoms: _624  and  _627
REMARK  258  A    between atoms: _627  and  _628
REMARK  259  A    between atoms: _631  and  _633
REMARK  260  A    between atoms: _633  and  _634
REMARK  261  A    between atoms: _633  and  _636
REMARK  262  A    between atoms: _636  and  _637
REMARK                            x       y       z     vdW  Elec       q    Type
REMARK                         _______ _______ _______ _____ _____    ______ ____
ROOT
ATOM      1  C   GLY A   1      41.934  32.046  49.093  0.00  0.00    +0.240 C 
ATOM      2  N   LEU A   2      42.844  31.200  49.604  0.00  0.00    -0.298 N 
ATOM      3  H   LEU A   2      43.829  31.521  49.699  0.00  0.00    +0.150 HD
ATOM      4  O   GLY A   1      40.762  31.718  48.867  0.00  0.00    -0.274 OA
ENDROOT
BRANCH   1   5
ATOM      5  CA  GLY A   1      42.395  33.465  48.755  0.00  0.00    +0.169 C 
BRANCH   5   6
ATOM      6  N   GLY A   1      43.185  34.077  49.836  0.00  0.00    -0.236 NA
ATOM      7  H   GLY A   1      44.165  34.363  49.637  0.00  0.00    +0.142 HD
ENDBRANCH   5   6
ENDBRANCH   1   5
BRANCH   2   8
ATOM      8  CA  LEU A   2      42.497  29.831  50.036  0.00  0.00    +0.137 C 
BRANCH   8   9
ATOM      9  C   LEU A   2      41.471  29.810  51.144  0.00  0.00    +0.227 C 
ATOM     10  O   LEU A   2      40.550  28.985  51.119  0.00  0.00    -0.286 OA
ENDBRANCH   8   9
BRANCH   8  11
ATOM     11  CB  LEU A   2      43.715  29.037  50.520  0.00  0.00    +0.028 C 
BRANCH  11  12
ATOM     12  CG  LEU A   2      44.555  28.314  49.490  0.00  0.00    +0.002 C 
ATOM     13  CD2 LEU A   2      45.539  27.403  50.250  0.00  0.00    +0.000 C 
ATOM     14  CD1 LEU A   2      43.672  27.520  48.512  0.00  0.00    +0.000 C 
ENDBRANCH  11  12
ENDBRANCH   8  11
ENDBRANCH   2   8
TORSDOF 6
REMARK  Name = ../refined-set-2016/3e93/3e93_pocket.pdb
REMARK  262 active torsions:
REMARK  status: ('A' for Active; 'I' for Inactive)
REMARK    1  A    between atoms: _1  and  _3
REMARK    2  A    between atoms: _3  and  _4
REMARK    3  A    between atoms: _3  and  _6
REMARK    4  A    between atoms: _6  and  _7
REMARK    5  A    between atoms: _17  and  _19
REMARK    6  A    between atoms: _19  and  _20
REMARK    7  A    between atoms: _19  and  _22
REMARK    8  A    between atoms: _22  and  _23
REMARK    9  A    between atoms: _26  and  _27
REMARK   10  A    between atoms: _32  and  _34
REMARK   11  A    between atoms: _34  and  _35
REMARK   12  A    between atoms: _34  and  _37
REMARK   13  A    between atoms: _40  and  _42
REMARK   14  A    between atoms: _42  and  _43
REMARK   15  A    between atoms: _45  and  _47
REMARK   16  A    between atoms: _47  and  _48
REMARK   17  A    between atoms: _47  and  _50
REMARK   18  A    between atoms: _50  and  _51
REMARK   19  A    between atoms: _53  and  _55
REMARK   20  A    between atoms: _55  and  _56
REMARK   21  A    between atoms: _55  and  _58
REMARK   22  A    between atoms: _58  and  _59
REMARK   23  A    between atoms: _61  and  _63
REMARK   24  A    between atoms: _63  and  _64
REMARK   25  A    between atoms: _63  and  _66
REMARK   26  A    between atoms: _69  and  _71
REMARK   27  A    between atoms: _71  and  _72
REMARK   28  A    between atoms: _71  and  _74
REMARK   29  A    between atoms: _76  and  _78
REMARK   30  A    between atoms: _78  and  _79
REMARK   31  A    between atoms: _82  and  _84
REMARK   32  A    between atoms: _84  and  _85
REMARK   33  A    between atoms: _88  and  _90
REMARK   34  A    between atoms: _90  and  _91
REMARK   35  A    between atoms: _90  and  _93
REMARK   36  A    between atoms: _93  and  _94
REMARK   37  A    between atoms: _94  and  _95
REMARK   38  A    between atoms: _95  and  _96
REMARK   39  A    between atoms: _105  and  _107
REMARK   40  A    between atoms: _107  and  _108
REMARK   41  A    between atoms: _107  and  _110
REMARK   42  A    between atoms: _113  and  _115
REMARK   43  A    between atoms: _115  and  _116
REMARK   44  A    between atoms: _119  and  _121
REMARK   45  A    between atoms: _121  and  _122
REMARK   46  A    between atoms: _121  and  _124
REMARK   47  A    between atoms: _127  and  _129
REMARK   48  A    between atoms: _129  and  _130
REMARK   49  A    between atoms: _129  and  _132
REMARK   50  A    between atoms: _132  and  _133
REMARK   51  A    between atoms: _133  and  _134
REMARK   52  A    between atoms: _134  and  _135
REMARK   53  A    between atoms: _135  and  _136
REMARK   54  A    between atoms: _140  and  _142
REMARK   55  A    between atoms: _142  and  _143
REMARK   56  A    between atoms: _142  and  _145
REMARK   57  A    between atoms: _145  and  _146
REMARK   58  A    between atoms: _146  and  _147
REMARK   59  A    between atoms: _147  and  _148
REMARK   60  A    between atoms: _148  and  _149
REMARK   61  A    between atoms: _153  and  _155
REMARK   62  A    between atoms: _155  and  _156
REMARK   63  A    between atoms: _155  and  _158
REMARK   64  A    between atoms: _158  and  _159
REMARK   65  A    between atoms: _162  and  _164
REMARK   66  A    between atoms: _164  and  _165
REMARK   67  A    between atoms: _164  and  _167
REMARK   68  A    between atoms: _167  and  _168
REMARK   69  A    between atoms: _168  and  _169
REMARK   70  A    between atoms: _169  and  _170
REMARK   71  A    between atoms: _179  and  _181
REMARK   72  A    between atoms: _181  and  _182
REMARK   73  A    between atoms: _181  and  _184
REMARK   74  A    between atoms: _184  and  _185
REMARK   75  A    between atoms: _185  and  _186
REMARK   76  A    between atoms: _186  and  _187
REMARK   77  A    between atoms: _196  and  _198
REMARK   78  A    between atoms: _198  and  _199
REMARK   79  A    between atoms: _198  and  _201
REMARK   80  A    between atoms: _201  and  _202
REMARK   81  A    between atoms: _202  and  _203
REMARK   82  A    between atoms: _206  and  _208
REMARK   83  A    between atoms: _208  and  _209
REMARK   84  A    between atoms: _208  and  _211
REMARK   85  A    between atoms: _211  and  _212
REMARK   86  A    between atoms: _215  and  _217
REMARK   87  A    between atoms: _217  and  _218
REMARK   88  A    between atoms: _217  and  _220
REMARK   89  A    between atoms: _220  and  _221
REMARK   90  A    between atoms: _224  and  _226
REMARK   91  A    between atoms: _226  and  _227
REMARK   92  A    between atoms: _226  and  _229
REMARK   93  A    between atoms: _229  and  _230
REMARK   94  A    between atoms: _233  and  _235
REMARK   95  A    between atoms: _235  and  _236
REMARK   96  A    between atoms: _235  and  _238
REMARK   97  A    between atoms: _238  and  _239
REMARK   98  A    between atoms: _239  and  _240
REMARK   99  A    between atoms: _242  and  _244
REMARK  100  A    between atoms: _244  and  _245
REMARK  101  A    between atoms: _244  and  _247
REMARK  102  A    between atoms: _247  and  _248
REMARK  103  A    between atoms: _253  and  _255
REMARK  104  A    between atoms: _255  and  _256
REMARK  105  A    between atoms: _255  and  _258
REMARK  106  A    between atoms: _258  and  _259
REMARK  107  A    between atoms: _264  and  _266
REMARK  108  A    between atoms: _266  and  _267
REMARK  109  A    between atoms: _266  and  _269
REMARK  110  A    between atoms: _272  and  _274
REMARK  111  A    between atoms: _274  and  _275
REMARK  112  A    between atoms: _274  and  _277
REMARK  113  A    between atoms: _277  and  _278
REMARK  114  A    between atoms: _281  and  _283
REMARK  115  A    between atoms: _283  and  _284
REMARK  116  A    between atoms: _286  and  _288
REMARK  117  A    between atoms: _288  and  _289
REMARK  118  A    between atoms: _288  and  _291
REMARK  119  A    between atoms: _291  and  _292
REMARK  120  A    between atoms: _295  and  _297
REMARK  121  A    between atoms: _297  and  _298
REMARK  122  A    between atoms: _297  and  _300
REMARK  123  A    between atoms: _300  and  _301
REMARK  124  A    between atoms: _304  and  _306
REMARK  125  A    between atoms: _306  and  _307
REMARK  126  A    between atoms: _306  and  _309
REMARK  127  A    between atoms: _309  and  _310
REMARK  128  A    between atoms: _313  and  _315
REMARK  129  A    between atoms: _315  and  _316
REMARK  130  A    between atoms: _315  and  _318
REMARK  131  A    between atoms: _318  and  _319
REMARK  132  A    between atoms: _324  and  _325
REMARK  133  A    between atoms: _327  and  _329
REMARK  134  A    between atoms: _329  and  _330
REMARK  135  A    between atoms: _329  and  _332
REMARK  136  A    between atoms: _332  and  _333
REMARK  137  A    between atoms: _336  and  _338
REMARK  138  A    between atoms: _338  and  _339
REMARK  139  A    between atoms: _338  and  _341
REMARK  140  A    between atoms: _344  and  _346
REMARK  141  A    between atoms: _346  and  _347
REMARK  142  A    between atoms: _346  and  _349
REMARK  143  A    between atoms: _349  and  _350
REMARK  144  A    between atoms: _353  and  _355
REMARK  145  A    between atoms: _355  and  _356
REMARK  146  A    between atoms: _355  and  _358
REMARK  147  A    between atoms: _358  and  _359
REMARK  148  A    between atoms: _364  and  _366
REMARK  149  A    between atoms: _366  and  _367
REMARK  150  A    between atoms: _366  and  _369
REMARK  151  A    between atoms: _369  and  _370
REMARK  152  A    between atoms: _373  and  _375
REMARK  153  A    between atoms: _375  and  _376
REMARK  154  A    between atoms: _375  and  _378
REMARK  155  A    between atoms: _378  and  _379
REMARK  156  A    between atoms: _379  and  _380
REMARK  157  A    between atoms: _382  and  _384
REMARK  158  A    between atoms: _384  and  _385
REMARK  159  A    between atoms: _387  and  _389
REMARK  160  A    between atoms: _389  and  _390
REMARK  161  A    between atoms: _393  and  _395
REMARK  162  A    between atoms: _395  and  _396
REMARK  163  A    between atoms: _395  and  _398
REMARK  164  A    between atoms: _398  and  _399
REMARK  165  A    between atoms: _402  and  _404
REMARK  166  A    between atoms: _404  and  _405
REMARK  167  A    between atoms: _404  and  _407
REMARK  168  A    between atoms: _407  and  _408
REMARK  169  A    between atoms: _413  and  _415
REMARK  170  A    between atoms: _415  and  _416
REMARK  171  A    between atoms: _418  and  _420
REMARK  172  A    between atoms: _420  and  _421
REMARK  173  A    between atoms: _420  and  _423
REMARK  174  A    between atoms: _423  and  _424
REMARK  175  A    between atoms: _427  and  _429
REMARK  176  A    between atoms: _429  and  _430
REMARK  177  A    between atoms: _429  and  _432
REMARK  178  A    between atoms: _432  and  _433
REMARK  179  A    between atoms: _438  and  _439
REMARK  180  A    between atoms: _441  and  _443
REMARK  181  A    between atoms: _443  and  _444
REMARK  182  A    between atoms: _443  and  _446
REMARK  183  A    between atoms: _446  and  _447
REMARK  184  A    between atoms: _450  and  _452
REMARK  185  A    between atoms: _452  and  _453
REMARK  186  A    between atoms: _452  and  _455
REMARK  187  A    between atoms: _455  and  _456
REMARK  188  A    between atoms: _461  and  _463
REMARK  189  A    between atoms: _463  and  _464
REMARK  190  A    between atoms: _467  and  _469
REMARK  191  A    between atoms: _469  and  _470
REMARK  192  A    between atoms: _469  and  _472
REMARK  193  A    between atoms: _472  and  _473
REMARK  194  A    between atoms: _476  and  _478
REMARK  195  A    between atoms: _478  and  _479
REMARK  196  A    between atoms: _478  and  _481
REMARK  197  A    between atoms: _481  and  _482
REMARK  198  A    between atoms: _485  and  _487
REMARK  199  A    between atoms: _487  and  _488
REMARK  200  A    between atoms: _487  and  _490
REMARK  201  A    between atoms: _490  and  _491
REMARK  202  A    between atoms: _496  and  _498
REMARK  203  A    between atoms: _498  and  _499
REMARK  204  A    between atoms: _498  and  _501
REMARK  205  A    between atoms: _501  and  _502
REMARK  206  A    between atoms: _502  and  _503
REMARK  207  A    between atoms: _503  and  _504
REMARK  208  A    between atoms: _513  and  _515
REMARK  209  A    between atoms: _515  and  _516
REMARK  210  A    between atoms: _515  and  _518
REMARK  211  A    between atoms: _518  and  _519
REMARK  212  A    between atoms: _522  and  _524
REMARK  213  A    between atoms: _524  and  _525
REMARK  214  A    between atoms: _524  and  _527
REMARK  215  A    between atoms: _527  and  _528
REMARK  216  A    between atoms: _531  and  _533
REMARK  217  A    between atoms: _533  and  _534
REMARK  218  A    between atoms: _533  and  _536
REMARK  219  A    between atoms: _536  and  _537
REMARK  220  A    between atoms: _539  and  _541
REMARK  221  A    between atoms: _541  and  _542
REMARK  222  A    between atoms: _541  and  _544
REMARK  223  A    between atoms: _544  and  _545
REMARK  224  A    between atoms: _550  and  _552
REMARK  225  A    between atoms: _552  and  _553
REMARK  226  A    between atoms: _552  and  _555
REMARK  227  A    between atoms: _555  and  _556
REMARK  228  A    between atoms: _559  and  _561
REMARK  229  A    between atoms: _561  and  _562
REMARK  230  A    between atoms: _565  and  _567
REMARK  231  A    between atoms: _567  and  _568
REMARK  232  A    between atoms: _567  and  _570
REMARK  233  A    between atoms: _570  and  _571
REMARK  234  A    between atoms: _571  and  _572
REMARK  235  A    between atoms: _572  and  _573
REMARK  236  A    between atoms: _573  and  _574
REMARK  237  A    between atoms: _578  and  _580
REMARK  238  A    between atoms: _580  and  _581
REMARK  239  A    between atoms: _580  and  _583
REMARK  240  A    between atoms: _583  and  _584
REMARK  241  A    between atoms: _587  and  _589
REMARK  242  A    between atoms: _589  and  _590
REMARK  243  A    between atoms: _589  and  _592
REMARK  244  A    between atoms: _592  and  _593
REMARK  245  A    between atoms: _596  and  _598
REMARK  246  A    between atoms: _598  and  _599
REMARK  247  A    between atoms: _598  and  _601
REMARK  248  A    between atoms: _601  and  _602
REMARK  249  A    between atoms: _605  and  _607
REMARK  250  A    between atoms: _607  and  _608
REMARK  251  A    between atoms: _607  and  _610
REMARK  252  A    between atoms: _610  and  _611
REMARK  253  A    between atoms: _617  and  _619
REMARK  254  A    between atoms: _619  and  _620
REMARK  255  A    between atoms: _622  and  _624
REMARK  256  A    between atoms: _624  and  _625
REMARK  257  A    between atoms: _624  and  _627
REMARK  258  A    between atoms: _627  and  _628
REMARK  259  A    between atoms: _631  and  _633
REMARK  260  A    between atoms: _633  and  _634
REMARK  261  A    between atoms: _633  and  _636
REMARK  262  A    between atoms: _636  and  _637
REMARK                            x       y       z     vdW  Elec       q    Type
REMARK                         _______ _______ _______ _____ _____    ______ ____
ROOT
ATOM      1  CA  ILE A   2      37.997  29.020  48.436  0.00  0.00    +0.148 C 
ENDROOT
BRANCH   1   4
ATOM      2  C   TYR A   1      37.415  30.733  50.058  0.00  0.00    +0.239 C 
ATOM      3  O   TYR A   1      36.281  30.277  50.181  0.00  0.00    -0.274 OA
ATOM      4  N   ILE A   2      38.319  30.181  49.264  0.00  0.00    -0.297 N 
ATOM      5  H   ILE A   2      39.278  30.582  49.229  0.00  0.00    +0.150 HD
BRANCH   2   6
ATOM      6  CA  TYR A   1      37.842  31.988  50.820  0.00  0.00    +0.149 C 
BRANCH   6   7
ATOM      7  N   TYR A   1      39.083  31.814  51.552  0.00  0.00    -0.238 NA
ATOM      8  H   TYR A   1      39.894  32.424  51.325  0.00  0.00    +0.142 HD
ENDBRANCH   6   7
BRANCH   6   9
ATOM      9  CB  TYR A   1      37.963  33.190  49.864  0.00  0.00    +0.053 C 
BRANCH   9  10
ATOM     10  CG  TYR A   1      36.766  33.453  49.015  0.00  0.00    -0.020 A 
ATOM     11  CD2 TYR A   1      35.749  34.326  49.455  0.00  0.00    -0.001 A 
ATOM     12  CE2 TYR A   1      34.656  34.597  48.652  0.00  0.00    +0.036 A 
ATOM     13  CZ  TYR A   1      34.546  33.972  47.425  0.00  0.00    +0.134 A 
ATOM     14  CE1 TYR A   1      35.526  33.107  46.976  0.00  0.00    +0.036 A 
ATOM     15  CD1 TYR A   1      36.622  32.843  47.774  0.00  0.00    -0.001 A 
BRANCH  13  16
ATOM     16  OH  TYR A   1      33.431  34.229  46.642  0.00  0.00    -0.506 OA
ATOM     17  HH  TYR A   1      32.615  33.961  47.134  0.00  0.00    +0.292 HD
ENDBRANCH  13  16
ENDBRANCH   9  10
ENDBRANCH   6   9
ENDBRANCH   2   6
ENDBRANCH   1   4
BRANCH   1  18
ATOM     18  C   ILE A   2      37.568  27.822  49.323  0.00  0.00    +0.241 C 
ATOM     19  N   HIS A   3      38.339  27.561  50.376  0.00  0.00    -0.298 N 
ATOM     20  H   HIS A   3      39.181  28.148  50.547  0.00  0.00    +0.150 HD
ATOM     21  O   ILE A   2      36.557  27.168  49.055  0.00  0.00    -0.273 OA
BRANCH  19  22
ATOM     22  CA  HIS A   3      38.031  26.471  51.296  0.00  0.00    +0.143 C 
BRANCH  22  23
ATOM     23  C   HIS A   3      36.703  26.655  52.051  0.00  0.00    +0.227 C 
ATOM     24  O   HIS A   3      35.994  25.664  52.325  0.00  0.00    -0.286 OA
ENDBRANCH  22  23
BRANCH  22  25
ATOM     25  CB  HIS A   3      39.200  26.250  52.254  0.00  0.00    +0.075 C 
BRANCH  25  26
ATOM     26  CG  HIS A   3      40.412  25.660  51.589  0.00  0.00    +0.082 A 
ATOM     27  ND1 HIS A   3      41.608  25.471  52.249  0.00  0.00    -0.227 NA
ATOM     28  CE1 HIS A   3      42.489  24.937  51.417  0.00  0.00    +0.199 A 
ATOM     29  NE2 HIS A   3      41.908  24.772  50.241  0.00  0.00    -0.221 NA
ATOM     30  CD2 HIS A   3      40.608  25.208  50.322  0.00  0.00    +0.115 A 
ENDBRANCH  25  26
ENDBRANCH  22  25
ENDBRANCH  19  22
ENDBRANCH   1  18
BRANCH   1  31
ATOM     31  CB  ILE A   2      39.217  28.680  47.529  0.00  0.00    +0.027 C 
ATOM     32  CG2 ILE A   2      39.081  27.338  46.862  0.00  0.00    +0.002 C 
BRANCH  31  33
ATOM     33  CG1 ILE A   2      39.350  29.749  46.436  0.00  0.00    +0.002 C 
ATOM     34  CD1 ILE A   2      40.774  29.892  45.876  0.00  0.00    +0.000 C 
ENDBRANCH  31  33
ENDBRANCH   1  31
TORSDOF 13
REMARK  Name = ../refined-set-2016/3e93/3e93_pocket.pdb
REMARK  262 active torsions:
REMARK  status: ('A' for Active; 'I' for Inactive)
REMARK    1  A    between atoms: _1  and  _3
REMARK    2  A    between atoms: _3  and  _4
REMARK    3  A    between atoms: _3  and  _6
REMARK    4  A    between atoms: _6  and  _7
REMARK    5  A    between atoms: _17  and  _19
REMARK    6  A    between atoms: _19  and  _20
REMARK    7  A    between atoms: _19  and  _22
REMARK    8  A    between atoms: _22  and  _23
REMARK    9  A    between atoms: _26  and  _27
REMARK   10  A    between atoms: _32  and  _34
REMARK   11  A    between atoms: _34  and  _35
REMARK   12  A    between atoms: _34  and  _37
REMARK   13  A    between atoms: _40  and  _42
REMARK   14  A    between atoms: _42  and  _43
REMARK   15  A    between atoms: _45  and  _47
REMARK   16  A    between atoms: _47  and  _48
REMARK   17  A    between atoms: _47  and  _50
REMARK   18  A    between atoms: _50  and  _51
REMARK   19  A    between atoms: _53  and  _55
REMARK   20  A    between atoms: _55  and  _56
REMARK   21  A    between atoms: _55  and  _58
REMARK   22  A    between atoms: _58  and  _59
REMARK   23  A    between atoms: _61  and  _63
REMARK   24  A    between atoms: _63  and  _64
REMARK   25  A    between atoms: _63  and  _66
REMARK   26  A    between atoms: _69  and  _71
REMARK   27  A    between atoms: _71  and  _72
REMARK   28  A    between atoms: _71  and  _74
REMARK   29  A    between atoms: _76  and  _78
REMARK   30  A    between atoms: _78  and  _79
REMARK   31  A    between atoms: _82  and  _84
REMARK   32  A    between atoms: _84  and  _85
REMARK   33  A    between atoms: _88  and  _90
REMARK   34  A    between atoms: _90  and  _91
REMARK   35  A    between atoms: _90  and  _93
REMARK   36  A    between atoms: _93  and  _94
REMARK   37  A    between atoms: _94  and  _95
REMARK   38  A    between atoms: _95  and  _96
REMARK   39  A    between atoms: _105  and  _107
REMARK   40  A    between atoms: _107  and  _108
REMARK   41  A    between atoms: _107  and  _110
REMARK   42  A    between atoms: _113  and  _115
REMARK   43  A    between atoms: _115  and  _116
REMARK   44  A    between atoms: _119  and  _121
REMARK   45  A    between atoms: _121  and  _122
REMARK   46  A    between atoms: _121  and  _124
REMARK   47  A    between atoms: _127  and  _129
REMARK   48  A    between atoms: _129  and  _130
REMARK   49  A    between atoms: _129  and  _132
REMARK   50  A    between atoms: _132  and  _133
REMARK   51  A    between atoms: _133  and  _134
REMARK   52  A    between atoms: _134  and  _135
REMARK   53  A    between atoms: _135  and  _136
REMARK   54  A    between atoms: _140  and  _142
REMARK   55  A    between atoms: _142  and  _143
REMARK   56  A    between atoms: _142  and  _145
REMARK   57  A    between atoms: _145  and  _146
REMARK   58  A    between atoms: _146  and  _147
REMARK   59  A    between atoms: _147  and  _148
REMARK   60  A    between atoms: _148  and  _149
REMARK   61  A    between atoms: _153  and  _155
REMARK   62  A    between atoms: _155  and  _156
REMARK   63  A    between atoms: _155  and  _158
REMARK   64  A    between atoms: _158  and  _159
REMARK   65  A    between atoms: _162  and  _164
REMARK   66  A    between atoms: _164  and  _165
REMARK   67  A    between atoms: _164  and  _167
REMARK   68  A    between atoms: _167  and  _168
REMARK   69  A    between atoms: _168  and  _169
REMARK   70  A    between atoms: _169  and  _170
REMARK   71  A    between atoms: _179  and  _181
REMARK   72  A    between atoms: _181  and  _182
REMARK   73  A    between atoms: _181  and  _184
REMARK   74  A    between atoms: _184  and  _185
REMARK   75  A    between atoms: _185  and  _186
REMARK   76  A    between atoms: _186  and  _187
REMARK   77  A    between atoms: _196  and  _198
REMARK   78  A    between atoms: _198  and  _199
REMARK   79  A    between atoms: _198  and  _201
REMARK   80  A    between atoms: _201  and  _202
REMARK   81  A    between atoms: _202  and  _203
REMARK   82  A    between atoms: _206  and  _208
REMARK   83  A    between atoms: _208  and  _209
REMARK   84  A    between atoms: _208  and  _211
REMARK   85  A    between atoms: _211  and  _212
REMARK   86  A    between atoms: _215  and  _217
REMARK   87  A    between atoms: _217  and  _218
REMARK   88  A    between atoms: _217  and  _220
REMARK   89  A    between atoms: _220  and  _221
REMARK   90  A    between atoms: _224  and  _226
REMARK   91  A    between atoms: _226  and  _227
REMARK   92  A    between atoms: _226  and  _229
REMARK   93  A    between atoms: _229  and  _230
REMARK   94  A    between atoms: _233  and  _235
REMARK   95  A    between atoms: _235  and  _236
REMARK   96  A    between atoms: _235  and  _238
REMARK   97  A    between atoms: _238  and  _239
REMARK   98  A    between atoms: _239  and  _240
REMARK   99  A    between atoms: _242  and  _244
REMARK  100  A    between atoms: _244  and  _245
REMARK  101  A    between atoms: _244  and  _247
REMARK  102  A    between atoms: _247  and  _248
REMARK  103  A    between atoms: _253  and  _255
REMARK  104  A    between atoms: _255  and  _256
REMARK  105  A    between atoms: _255  and  _258
REMARK  106  A    between atoms: _258  and  _259
REMARK  107  A    between atoms: _264  and  _266
REMARK  108  A    between atoms: _266  and  _267
REMARK  109  A    between atoms: _266  and  _269
REMARK  110  A    between atoms: _272  and  _274
REMARK  111  A    between atoms: _274  and  _275
REMARK  112  A    between atoms: _274  and  _277
REMARK  113  A    between atoms: _277  and  _278
REMARK  114  A    between atoms: _281  and  _283
REMARK  115  A    between atoms: _283  and  _284
REMARK  116  A    between atoms: _286  and  _288
REMARK  117  A    between atoms: _288  and  _289
REMARK  118  A    between atoms: _288  and  _291
REMARK  119  A    between atoms: _291  and  _292
REMARK  120  A    between atoms: _295  and  _297
REMARK  121  A    between atoms: _297  and  _298
REMARK  122  A    between atoms: _297  and  _300
REMARK  123  A    between atoms: _300  and  _301
REMARK  124  A    between atoms: _304  and  _306
REMARK  125  A    between atoms: _306  and  _307
REMARK  126  A    between atoms: _306  and  _309
REMARK  127  A    between atoms: _309  and  _310
REMARK  128  A    between atoms: _313  and  _315
REMARK  129  A    between atoms: _315  and  _316
REMARK  130  A    between atoms: _315  and  _318
REMARK  131  A    between atoms: _318  and  _319
REMARK  132  A    between atoms: _324  and  _325
REMARK  133  A    between atoms: _327  and  _329
REMARK  134  A    between atoms: _329  and  _330
REMARK  135  A    between atoms: _329  and  _332
REMARK  136  A    between atoms: _332  and  _333
REMARK  137  A    between atoms: _336  and  _338
REMARK  138  A    between atoms: _338  and  _339
REMARK  139  A    between atoms: _338  and  _341
REMARK  140  A    between atoms: _344  and  _346
REMARK  141  A    between atoms: _346  and  _347
REMARK  142  A    between atoms: _346  and  _349
REMARK  143  A    between atoms: _349  and  _350
REMARK  144  A    between atoms: _353  and  _355
REMARK  145  A    between atoms: _355  and  _356
REMARK  146  A    between atoms: _355  and  _358
REMARK  147  A    between atoms: _358  and  _359
REMARK  148  A    between atoms: _364  and  _366
REMARK  149  A    between atoms: _366  and  _367
REMARK  150  A    between atoms: _366  and  _369
REMARK  151  A    between atoms: _369  and  _370
REMARK  152  A    between atoms: _373  and  _375
REMARK  153  A    between atoms: _375  and  _376
REMARK  154  A    between atoms: _375  and  _378
REMARK  155  A    between atoms: _378  and  _379
REMARK  156  A    between atoms: _379  and  _380
REMARK  157  A    between atoms: _382  and  _384
REMARK  158  A    between atoms: _384  and  _385
REMARK  159  A    between atoms: _387  and  _389
REMARK  160  A    between atoms: _389  and  _390
REMARK  161  A    between atoms: _393  and  _395
REMARK  162  A    between atoms: _395  and  _396
REMARK  163  A    between atoms: _395  and  _398
REMARK  164  A    between atoms: _398  and  _399
REMARK  165  A    between atoms: _402  and  _404
REMARK  166  A    between atoms: _404  and  _405
REMARK  167  A    between atoms: _404  and  _407
REMARK  168  A    between atoms: _407  and  _408
REMARK  169  A    between atoms: _413  and  _415
REMARK  170  A    between atoms: _415  and  _416
REMARK  171  A    between atoms: _418  and  _420
REMARK  172  A    between atoms: _420  and  _421
REMARK  173  A    between atoms: _420  and  _423
REMARK  174  A    between atoms: _423  and  _424
REMARK  175  A    between atoms: _427  and  _429
REMARK  176  A    between atoms: _429  and  _430
REMARK  177  A    between atoms: _429  and  _432
REMARK  178  A    between atoms: _432  and  _433
REMARK  179  A    between atoms: _438  and  _439
REMARK  180  A    between atoms: _441  and  _443
REMARK  181  A    between atoms: _443  and  _444
REMARK  182  A    between atoms: _443  and  _446
REMARK  183  A    between atoms: _446  and  _447
REMARK  184  A    between atoms: _450  and  _452
REMARK  185  A    between atoms: _452  and  _453
REMARK  186  A    between atoms: _452  and  _455
REMARK  187  A    between atoms: _455  and  _456
REMARK  188  A    between atoms: _461  and  _463
REMARK  189  A    between atoms: _463  and  _464
REMARK  190  A    between atoms: _467  and  _469
REMARK  191  A    between atoms: _469  and  _470
REMARK  192  A    between atoms: _469  and  _472
REMARK  193  A    between atoms: _472  and  _473
REMARK  194  A    between atoms: _476  and  _478
REMARK  195  A    between atoms: _478  and  _479
REMARK  196  A    between atoms: _478  and  _481
REMARK  197  A    between atoms: _481  and  _482
REMARK  198  A    between atoms: _485  and  _487
REMARK  199  A    between atoms: _487  and  _488
REMARK  200  A    between atoms: _487  and  _490
REMARK  201  A    between atoms: _490  and  _491
REMARK  202  A    between atoms: _496  and  _498
REMARK  203  A    between atoms: _498  and  _499
REMARK  204  A    between atoms: _498  and  _501
REMARK  205  A    between atoms: _501  and  _502
REMARK  206  A    between atoms: _502  and  _503
REMARK  207  A    between atoms: _503  and  _504
REMARK  208  A    between atoms: _513  and  _515
REMARK  209  A    between atoms: _515  and  _516
REMARK  210  A    between atoms: _515  and  _518
REMARK  211  A    between atoms: _518  and  _519
REMARK  212  A    between atoms: _522  and  _524
REMARK  213  A    between atoms: _524  and  _525
REMARK  214  A    between atoms: _524  and  _527
REMARK  215  A    between atoms: _527  and  _528
REMARK  216  A    between atoms: _531  and  _533
REMARK  217  A    between atoms: _533  and  _534
REMARK  218  A    between atoms: _533  and  _536
REMARK  219  A    between atoms: _536  and  _537
REMARK  220  A    between atoms: _539  and  _541
REMARK  221  A    between atoms: _541  and  _542
REMARK  222  A    between atoms: _541  and  _544
REMARK  223  A    between atoms: _544  and  _545
REMARK  224  A    between atoms: _550  and  _552
REMARK  225  A    between atoms: _552  and  _553
REMARK  226  A    between atoms: _552  and  _555
REMARK  227  A    between atoms: _555  and  _556
REMARK  228  A    between atoms: _559  and  _561
REMARK  229  A    between atoms: _561  and  _562
REMARK  230  A    between atoms: _565  and  _567
REMARK  231  A    between atoms: _567  and  _568
REMARK  232  A    between atoms: _567  and  _570
REMARK  233  A    between atoms: _570  and  _571
REMARK  234  A    between atoms: _571  and  _572
REMARK  235  A    between atoms: _572  and  _573
REMARK  236  A    between atoms: _573  and  _574
REMARK  237  A    between atoms: _578  and  _580
REMARK  238  A    between atoms: _580  and  _581
REMARK  239  A    between atoms: _580  and  _583
REMARK  240  A    between atoms: _583  and  _584
REMARK  241  A    between atoms: _587  and  _589
REMARK  242  A    between atoms: _589  and  _590
REMARK  243  A    between atoms: _589  and  _592
REMARK  244  A    between atoms: _592  and  _593
REMARK  245  A    between atoms: _596  and  _598
REMARK  246  A    between atoms: _598  and  _599
REMARK  247  A    between atoms: _598  and  _601
REMARK  248  A    between atoms: _601  and  _602
REMARK  249  A    between atoms: _605  and  _607
REMARK  250  A    between atoms: _607  and  _608
REMARK  251  A    between atoms: _607  and  _610
REMARK  252  A    between atoms: _610  and  _611
REMARK  253  A    between atoms: _617  and  _619
REMARK  254  A    between atoms: _619  and  _620
REMARK  255  A    between atoms: _622  and  _624
REMARK  256  A    between atoms: _624  and  _625
REMARK  257  A    between atoms: _624  and  _627
REMARK  258  A    between atoms: _627  and  _628
REMARK  259  A    between atoms: _631  and  _633
REMARK  260  A    between atoms: _633  and  _634
REMARK  261  A    between atoms: _633  and  _636
REMARK  262  A    between atoms: _636  and  _637
REMARK                            x       y       z     vdW  Elec       q    Type
REMARK                         _______ _______ _______ _____ _____    ______ ____
ROOT
ATOM      1  CA  ALA A   1      33.063  27.235  49.900  0.00  0.00    +0.133 C 
ATOM      2  CB  ALA A   1      33.166  28.015  48.547  0.00  0.00    +0.027 C 
ENDROOT
BRANCH   1   3
ATOM      3  N   ALA A   1      34.088  27.687  50.830  0.00  0.00    -0.239 NA
ATOM      4  H   ALA A   1      35.027  27.937  50.460  0.00  0.00    +0.142 HD
ENDBRANCH   1   3
BRANCH   1   5
ATOM      5  C   ALA A   1      33.189  25.724  49.663  0.00  0.00    +0.224 C 
ATOM      6  O   ALA A   1      32.505  25.174  48.802  0.00  0.00    -0.287 OA
ENDBRANCH   1   5
TORSDOF 2
REMARK  Name = ../refined-set-2016/3e93/3e93_pocket.pdb
REMARK  262 active torsions:
REMARK  status: ('A' for Active; 'I' for Inactive)
REMARK    1  A    between atoms: _1  and  _3
REMARK    2  A    between atoms: _3  and  _4
REMARK    3  A    between atoms: _3  and  _6
REMARK    4  A    between atoms: _6  and  _7
REMARK    5  A    between atoms: _17  and  _19
REMARK    6  A    between atoms: _19  and  _20
REMARK    7  A    between atoms: _19  and  _22
REMARK    8  A    between atoms: _22  and  _23
REMARK    9  A    between atoms: _26  and  _27
REMARK   10  A    between atoms: _32  and  _34
REMARK   11  A    between atoms: _34  and  _35
REMARK   12  A    between atoms: _34  and  _37
REMARK   13  A    between atoms: _40  and  _42
REMARK   14  A    between atoms: _42  and  _43
REMARK   15  A    between atoms: _45  and  _47
REMARK   16  A    between atoms: _47  and  _48
REMARK   17  A    between atoms: _47  and  _50
REMARK   18  A    between atoms: _50  and  _51
REMARK   19  A    between atoms: _53  and  _55
REMARK   20  A    between atoms: _55  and  _56
REMARK   21  A    between atoms: _55  and  _58
REMARK   22  A    between atoms: _58  and  _59
REMARK   23  A    between atoms: _61  and  _63
REMARK   24  A    between atoms: _63  and  _64
REMARK   25  A    between atoms: _63  and  _66
REMARK   26  A    between atoms: _69  and  _71
REMARK   27  A    between atoms: _71  and  _72
REMARK   28  A    between atoms: _71  and  _74
REMARK   29  A    between atoms: _76  and  _78
REMARK   30  A    between atoms: _78  and  _79
REMARK   31  A    between atoms: _82  and  _84
REMARK   32  A    between atoms: _84  and  _85
REMARK   33  A    between atoms: _88  and  _90
REMARK   34  A    between atoms: _90  and  _91
REMARK   35  A    between atoms: _90  and  _93
REMARK   36  A    between atoms: _93  and  _94
REMARK   37  A    between atoms: _94  and  _95
REMARK   38  A    between atoms: _95  and  _96
REMARK   39  A    between atoms: _105  and  _107
REMARK   40  A    between atoms: _107  and  _108
REMARK   41  A    between atoms: _107  and  _110
REMARK   42  A    between atoms: _113  and  _115
REMARK   43  A    between atoms: _115  and  _116
REMARK   44  A    between atoms: _119  and  _121
REMARK   45  A    between atoms: _121  and  _122
REMARK   46  A    between atoms: _121  and  _124
REMARK   47  A    between atoms: _127  and  _129
REMARK   48  A    between atoms: _129  and  _130
REMARK   49  A    between atoms: _129  and  _132
REMARK   50  A    between atoms: _132  and  _133
REMARK   51  A    between atoms: _133  and  _134
REMARK   52  A    between atoms: _134  and  _135
REMARK   53  A    between atoms: _135  and  _136
REMARK   54  A    between atoms: _140  and  _142
REMARK   55  A    between atoms: _142  and  _143
REMARK   56  A    between atoms: _142  and  _145
REMARK   57  A    between atoms: _145  and  _146
REMARK   58  A    between atoms: _146  and  _147
REMARK   59  A    between atoms: _147  and  _148
REMARK   60  A    between atoms: _148  and  _149
REMARK   61  A    between atoms: _153  and  _155
REMARK   62  A    between atoms: _155  and  _156
REMARK   63  A    between atoms: _155  and  _158
REMARK   64  A    between atoms: _158  and  _159
REMARK   65  A    between atoms: _162  and  _164
REMARK   66  A    between atoms: _164  and  _165
REMARK   67  A    between atoms: _164  and  _167
REMARK   68  A    between atoms: _167  and  _168
REMARK   69  A    between atoms: _168  and  _169
REMARK   70  A    between atoms: _169  and  _170
REMARK   71  A    between atoms: _179  and  _181
REMARK   72  A    between atoms: _181  and  _182
REMARK   73  A    between atoms: _181  and  _184
REMARK   74  A    between atoms: _184  and  _185
REMARK   75  A    between atoms: _185  and  _186
REMARK   76  A    between atoms: _186  and  _187
REMARK   77  A    between atoms: _196  and  _198
REMARK   78  A    between atoms: _198  and  _199
REMARK   79  A    between atoms: _198  and  _201
REMARK   80  A    between atoms: _201  and  _202
REMARK   81  A    between atoms: _202  and  _203
REMARK   82  A    between atoms: _206  and  _208
REMARK   83  A    between atoms: _208  and  _209
REMARK   84  A    between atoms: _208  and  _211
REMARK   85  A    between atoms: _211  and  _212
REMARK   86  A    between atoms: _215  and  _217
REMARK   87  A    between atoms: _217  and  _218
REMARK   88  A    between atoms: _217  and  _220
REMARK   89  A    between atoms: _220  and  _221
REMARK   90  A    between atoms: _224  and  _226
REMARK   91  A    between atoms: _226  and  _227
REMARK   92  A    between atoms: _226  and  _229
REMARK   93  A    between atoms: _229  and  _230
REMARK   94  A    between atoms: _233  and  _235
REMARK   95  A    between atoms: _235  and  _236
REMARK   96  A    between atoms: _235  and  _238
REMARK   97  A    between atoms: _238  and  _239
REMARK   98  A    between atoms: _239  and  _240
REMARK   99  A    between atoms: _242  and  _244
REMARK  100  A    between atoms: _244  and  _245
REMARK  101  A    between atoms: _244  and  _247
REMARK  102  A    between atoms: _247  and  _248
REMARK  103  A    between atoms: _253  and  _255
REMARK  104  A    between atoms: _255  and  _256
REMARK  105  A    between atoms: _255  and  _258
REMARK  106  A    between atoms: _258  and  _259
REMARK  107  A    between atoms: _264  and  _266
REMARK  108  A    between atoms: _266  and  _267
REMARK  109  A    between atoms: _266  and  _269
REMARK  110  A    between atoms: _272  and  _274
REMARK  111  A    between atoms: _274  and  _275
REMARK  112  A    between atoms: _274  and  _277
REMARK  113  A    between atoms: _277  and  _278
REMARK  114  A    between atoms: _281  and  _283
REMARK  115  A    between atoms: _283  and  _284
REMARK  116  A    between atoms: _286  and  _288
REMARK  117  A    between atoms: _288  and  _289
REMARK  118  A    between atoms: _288  and  _291
REMARK  119  A    between atoms: _291  and  _292
REMARK  120  A    between atoms: _295  and  _297
REMARK  121  A    between atoms: _297  and  _298
REMARK  122  A    between atoms: _297  and  _300
REMARK  123  A    between atoms: _300  and  _301
REMARK  124  A    between atoms: _304  and  _306
REMARK  125  A    between atoms: _306  and  _307
REMARK  126  A    between atoms: _306  and  _309
REMARK  127  A    between atoms: _309  and  _310
REMARK  128  A    between atoms: _313  and  _315
REMARK  129  A    between atoms: _315  and  _316
REMARK  130  A    between atoms: _315  and  _318
REMARK  131  A    between atoms: _318  and  _319
REMARK  132  A    between atoms: _324  and  _325
REMARK  133  A    between atoms: _327  and  _329
REMARK  134  A    between atoms: _329  and  _330
REMARK  135  A    between atoms: _329  and  _332
REMARK  136  A    between atoms: _332  and  _333
REMARK  137  A    between atoms: _336  and  _338
REMARK  138  A    between atoms: _338  and  _339
REMARK  139  A    between atoms: _338  and  _341
REMARK  140  A    between atoms: _344  and  _346
REMARK  141  A    between atoms: _346  and  _347
REMARK  142  A    between atoms: _346  and  _349
REMARK  143  A    between atoms: _349  and  _350
REMARK  144  A    between atoms: _353  and  _355
REMARK  145  A    between atoms: _355  and  _356
REMARK  146  A    between atoms: _355  and  _358
REMARK  147  A    between atoms: _358  and  _359
REMARK  148  A    between atoms: _364  and  _366
REMARK  149  A    between atoms: _366  and  _367
REMARK  150  A    between atoms: _366  and  _369
REMARK  151  A    between atoms: _369  and  _370
REMARK  152  A    between atoms: _373  and  _375
REMARK  153  A    between atoms: _375  and  _376
REMARK  154  A    between atoms: _375  and  _378
REMARK  155  A    between atoms: _378  and  _379
REMARK  156  A    between atoms: _379  and  _380
REMARK  157  A    between atoms: _382  and  _384
REMARK  158  A    between atoms: _384  and  _385
REMARK  159  A    between atoms: _387  and  _389
REMARK  160  A    between atoms: _389  and  _390
REMARK  161  A    between atoms: _393  and  _395
REMARK  162  A    between atoms: _395  and  _396
REMARK  163  A    between atoms: _395  and  _398
REMARK  164  A    between atoms: _398  and  _399
REMARK  165  A    between atoms: _402  and  _404
REMARK  166  A    between atoms: _404  and  _405
REMARK  167  A    between atoms: _404  and  _407
REMARK  168  A    between atoms: _407  and  _408
REMARK  169  A    between atoms: _413  and  _415
REMARK  170  A    between atoms: _415  and  _416
REMARK  171  A    between atoms: _418  and  _420
REMARK  172  A    between atoms: _420  and  _421
REMARK  173  A    between atoms: _420  and  _423
REMARK  174  A    between atoms: _423  and  _424
REMARK  175  A    between atoms: _427  and  _429
REMARK  176  A    between atoms: _429  and  _430
REMARK  177  A    between atoms: _429  and  _432
REMARK  178  A    between atoms: _432  and  _433
REMARK  179  A    between atoms: _438  and  _439
REMARK  180  A    between atoms: _441  and  _443
REMARK  181  A    between atoms: _443  and  _444
REMARK  182  A    between atoms: _443  and  _446
REMARK  183  A    between atoms: _446  and  _447
REMARK  184  A    between atoms: _450  and  _452
REMARK  185  A    between atoms: _452  and  _453
REMARK  186  A    between atoms: _452  and  _455
REMARK  187  A    between atoms: _455  and  _456
REMARK  188  A    between atoms: _461  and  _463
REMARK  189  A    between atoms: _463  and  _464
REMARK  190  A    between atoms: _467  and  _469
REMARK  191  A    between atoms: _469  and  _470
REMARK  192  A    between atoms: _469  and  _472
REMARK  193  A    between atoms: _472  and  _473
REMARK  194  A    between atoms: _476  and  _478
REMARK  195  A    between atoms: _478  and  _479
REMARK  196  A    between atoms: _478  and  _481
REMARK  197  A    between atoms: _481  and  _482
REMARK  198  A    between atoms: _485  and  _487
REMARK  199  A    between atoms: _487  and  _488
REMARK  200  A    between atoms: _487  and  _490
REMARK  201  A    between atoms: _490  and  _491
REMARK  202  A    between atoms: _496  and  _498
REMARK  203  A    between atoms: _498  and  _499
REMARK  204  A    between atoms: _498  and  _501
REMARK  205  A    between atoms: _501  and  _502
REMARK  206  A    between atoms: _502  and  _503
REMARK  207  A    between atoms: _503  and  _504
REMARK  208  A    between atoms: _513  and  _515
REMARK  209  A    between atoms: _515  and  _516
REMARK  210  A    between atoms: _515  and  _518
REMARK  211  A    between atoms: _518  and  _519
REMARK  212  A    between atoms: _522  and  _524
REMARK  213  A    between atoms: _524  and  _525
REMARK  214  A    between atoms: _524  and  _527
REMARK  215  A    between atoms: _527  and  _528
REMARK  216  A    between atoms: _531  and  _533
REMARK  217  A    between atoms: _533  and  _534
REMARK  218  A    between atoms: _533  and  _536
REMARK  219  A    between atoms: _536  and  _537
REMARK  220  A    between atoms: _539  and  _541
REMARK  221  A    between atoms: _541  and  _542
REMARK  222  A    between atoms: _541  and  _544
REMARK  223  A    between atoms: _544  and  _545
REMARK  224  A    between atoms: _550  and  _552
REMARK  225  A    between atoms: _552  and  _553
REMARK  226  A    between atoms: _552  and  _555
REMARK  227  A    between atoms: _555  and  _556
REMARK  228  A    between atoms: _559  and  _561
REMARK  229  A    between atoms: _561  and  _562
REMARK  230  A    between atoms: _565  and  _567
REMARK  231  A    between atoms: _567  and  _568
REMARK  232  A    between atoms: _567  and  _570
REMARK  233  A    between atoms: _570  and  _571
REMARK  234  A    between atoms: _571  and  _572
REMARK  235  A    between atoms: _572  and  _573
REMARK  236  A    between atoms: _573  and  _574
REMARK  237  A    between atoms: _578  and  _580
REMARK  238  A    between atoms: _580  and  _581
REMARK  239  A    between atoms: _580  and  _583
REMARK  240  A    between atoms: _583  and  _584
REMARK  241  A    between atoms: _587  and  _589
REMARK  242  A    between atoms: _589  and  _590
REMARK  243  A    between atoms: _589  and  _592
REMARK  244  A    between atoms: _592  and  _593
REMARK  245  A    between atoms: _596  and  _598
REMARK  246  A    between atoms: _598  and  _599
REMARK  247  A    between atoms: _598  and  _601
REMARK  248  A    between atoms: _601  and  _602
REMARK  249  A    between atoms: _605  and  _607
REMARK  250  A    between atoms: _607  and  _608
REMARK  251  A    between atoms: _607  and  _610
REMARK  252  A    between atoms: _610  and  _611
REMARK  253  A    between atoms: _617  and  _619
REMARK  254  A    between atoms: _619  and  _620
REMARK  255  A    between atoms: _622  and  _624
REMARK  256  A    between atoms: _624  and  _625
REMARK  257  A    between atoms: _624  and  _627
REMARK  258  A    between atoms: _627  and  _628
REMARK  259  A    between atoms: _631  and  _633
REMARK  260  A    between atoms: _633  and  _634
REMARK  261  A    between atoms: _633  and  _636
REMARK  262  A    between atoms: _636  and  _637
REMARK                            x       y       z     vdW  Elec       q    Type
REMARK                         _______ _______ _______ _____ _____    ______ ____
ROOT
ATOM      1  CA  ARG A   4      44.162  20.384  44.191  0.00  0.00    +0.149 C 
ENDROOT
BRANCH   1   2
ATOM      2  C   ARG A   4      45.375  20.517  43.254  0.00  0.00    +0.241 C 
ATOM      3  O   ARG A   4      46.163  19.581  43.144  0.00  0.00    -0.273 OA
ATOM      4  N   ASP A   5      45.519  21.652  42.565  0.00  0.00    -0.297 N 
ATOM      5  H   ASP A   5      44.823  22.414  42.691  0.00  0.00    +0.150 HD
BRANCH   4   6
ATOM      6  CA  ASP A   5      46.641  21.849  41.631  0.00  0.00    +0.160 C 
BRANCH   6   7
ATOM      7  C   ASP A   5      47.367  23.209  41.824  0.00  0.00    +0.241 C 
ATOM      8  N   LEU A   6      47.534  23.626  43.078  0.00  0.00    -0.298 N 
ATOM      9  H   LEU A   6      47.142  23.069  43.864  0.00  0.00    +0.150 HD
ATOM     10  O   ASP A   5      47.732  23.875  40.839  0.00  0.00    -0.273 OA
BRANCH   8  11
ATOM     11  CA  LEU A   6      48.266  24.863  43.357  0.00  0.00    +0.137 C 
BRANCH  11  12
ATOM     12  C   LEU A   6      49.728  24.690  43.041  0.00  0.00    +0.227 C 
ATOM     13  O   LEU A   6      50.361  23.712  43.450  0.00  0.00    -0.286 OA
ENDBRANCH  11  12
BRANCH  11  14
ATOM     14  CB  LEU A   6      48.140  25.333  44.813  0.00  0.00    +0.028 C 
BRANCH  14  15
ATOM     15  CG  LEU A   6      46.844  25.984  45.262  0.00  0.00    +0.002 C 
ATOM     16  CD2 LEU A   6      46.991  26.333  46.749  0.00  0.00    +0.000 C 
ATOM     17  CD1 LEU A   6      46.462  27.231  44.401  0.00  0.00    +0.000 C 
ENDBRANCH  14  15
ENDBRANCH  11  14
ENDBRANCH   8  11
ENDBRANCH   6   7
BRANCH   6  18
ATOM     18  CB  ASP A   5      46.161  21.691  40.194  0.00  0.00    +0.143 C 
BRANCH  18  19
ATOM     19  CG  ASP A   5      47.283  21.292  39.233  0.00  0.00    +0.367 C 
ATOM     20  OD2 ASP A   5      48.343  20.827  39.689  0.00  0.00    -0.246 OA
ATOM     21  OD1 ASP A   5      47.098  21.451  38.016  0.00  0.00    -0.246 OA
ENDBRANCH  18  19
ENDBRANCH   6  18
ENDBRANCH   4   6
ENDBRANCH   1   2
BRANCH   1  23
ATOM     22  C   HIS A   3      42.748  22.342  43.702  0.00  0.00    +0.241 C 
ATOM     23  N   ARG A   4      43.544  21.661  44.532  0.00  0.00    -0.297 N 
ATOM     24  H   ARG A   4      43.733  22.063  45.472  0.00  0.00    +0.150 HD
ATOM     25  O   HIS A   3      42.478  21.977  42.553  0.00  0.00    -0.273 OA
BRANCH  22  26
ATOM     26  CA  HIS A   3      42.155  23.642  44.276  0.00  0.00    +0.155 C 
BRANCH  26  28
ATOM     27  C   ILE A   2      40.303  22.629  45.486  0.00  0.00    +0.241 C 
ATOM     28  N   HIS A   3      41.424  23.357  45.527  0.00  0.00    -0.297 N 
ATOM     29  H   HIS A   3      41.779  23.720  46.435  0.00  0.00    +0.150 HD
ATOM     30  O   ILE A   2      39.799  22.224  44.429  0.00  0.00    -0.273 OA
BRANCH  27  31
ATOM     31  CA  ILE A   2      39.623  22.301  46.831  0.00  0.00    +0.148 C 
BRANCH  31  34
ATOM     32  C   ILE A   1      37.698  23.735  47.281  0.00  0.00    +0.238 C 
ATOM     33  O   ILE A   1      38.329  24.446  48.077  0.00  0.00    -0.274 OA
ATOM     34  N   ILE A   2      38.200  22.641  46.716  0.00  0.00    -0.297 N 
ATOM     35  H   ILE A   2      37.569  22.011  46.180  0.00  0.00    +0.150 HD
BRANCH  32  36
ATOM     36  CA  ILE A   1      36.262  24.056  46.946  0.00  0.00    +0.145 C 
BRANCH  36  37
ATOM     37  CB  ILE A   1      36.163  25.288  46.003  0.00  0.00    +0.025 C 
ATOM     38  CG2 ILE A   1      37.097  25.084  44.781  0.00  0.00    +0.002 C 
BRANCH  37  39
ATOM     39  CG1 ILE A   1      34.716  25.466  45.524  0.00  0.00    +0.002 C 
ATOM     40  CD1 ILE A   1      34.287  26.945  45.310  0.00  0.00    +0.000 C 
ENDBRANCH  37  39
ENDBRANCH  36  37
BRANCH  36  41
ATOM     41  N   ILE A   1      35.607  24.277  48.227  0.00  0.00    -0.238 NA
ATOM     42  H   ILE A   1      35.772  25.168  48.737  0.00  0.00    +0.142 HD
ENDBRANCH  36  41
ENDBRANCH  32  36
ENDBRANCH  31  34
BRANCH  31  43
ATOM     43  CB  ILE A   2      39.809  20.804  47.155  0.00  0.00    +0.027 C 
ATOM     44  CG2 ILE A   2      41.307  20.469  47.344  0.00  0.00    +0.002 C 
BRANCH  43  45
ATOM     45  CG1 ILE A   2      39.002  20.418  48.410  0.00  0.00    +0.002 C 
ATOM     46  CD1 ILE A   2      38.790  18.905  48.532  0.00  0.00    +0.000 C 
ENDBRANCH  43  45
ENDBRANCH  31  43
ENDBRANCH  27  31
ENDBRANCH  26  28
BRANCH  26  47
ATOM     47  CB  HIS A   3      43.254  24.714  44.453  0.00  0.00    +0.076 C 
BRANCH  47  48
ATOM     48  CG  HIS A   3      43.737  25.274  43.148  0.00  0.00    +0.082 A 
ATOM     49  CD2 HIS A   3      43.514  26.474  42.557  0.00  0.00    +0.115 A 
ATOM     50  NE2 HIS A   3      44.128  26.443  41.326  0.00  0.00    -0.221 NA
ATOM     51  CE1 HIS A   3      44.724  25.272  41.174  0.00  0.00    +0.199 A 
ATOM     52  ND1 HIS A   3      44.488  24.539  42.249  0.00  0.00    -0.227 NA
ENDBRANCH  47  48
ENDBRANCH  26  47
ENDBRANCH  22  26
ENDBRANCH   1  23
BRANCH   1  53
ATOM     53  CB  ARG A   4      43.109  19.466  43.555  0.00  0.00    +0.033 C 
BRANCH  53  54
ATOM     54  CG  ARG A   4      43.029  18.068  44.078  0.00  0.00    +0.045 C 
BRANCH  54  55
ATOM     55  CD  ARG A   4      41.879  17.305  43.320  0.00  0.00    +0.174 C 
BRANCH  55  56
ATOM     56  NE  ARG A   4      42.335  16.665  42.078  0.00  0.00    -0.265 N 
ATOM     57  HE  ARG A   4      43.351  16.713  41.863  0.00  0.00    +0.259 HD
ATOM     58  CZ  ARG A   4      41.551  16.025  41.199  0.00  0.00    +0.342 C 
ATOM     59  NH2 ARG A   4      40.236  15.921  41.397  0.00  0.00    -0.292 N 
ATOM     60 HH21 ARG A   4      39.803  16.340  42.245  0.00  0.00    +0.255 HD
ATOM     61 HH22 ARG A   4      39.644  15.421  40.704  0.00  0.00    +0.255 HD
ATOM     62  NH1 ARG A   4      42.089  15.485  40.107  0.00  0.00    -0.292 N 
ATOM     63 HH11 ARG A   4      43.113  15.561  39.940  0.00  0.00    +0.255 HD
ATOM     64 HH12 ARG A   4      41.486  14.987  39.422  0.00  0.00    +0.255 HD
ENDBRANCH  55  56
ENDBRANCH  54  55
ENDBRANCH  53  54
ENDBRANCH   1  53
TORSDOF 26
REMARK  Name = ../refined-set-2016/3e93/3e93_pocket.pdb
REMARK  262 active torsions:
REMARK  status: ('A' for Active; 'I' for Inactive)
REMARK    1  A    between atoms: _1  and  _3
REMARK    2  A    between atoms: _3  and  _4
REMARK    3  A    between atoms: _3  and  _6
REMARK    4  A    between atoms: _6  and  _7
REMARK    5  A    between atoms: _17  and  _19
REMARK    6  A    between atoms: _19  and  _20
REMARK    7  A    between atoms: _19  and  _22
REMARK    8  A    between atoms: _22  and  _23
REMARK    9  A    between atoms: _26  and  _27
REMARK   10  A    between atoms: _32  and  _34
REMARK   11  A    between atoms: _34  and  _35
REMARK   12  A    between atoms: _34  and  _37
REMARK   13  A    between atoms: _40  and  _42
REMARK   14  A    between atoms: _42  and  _43
REMARK   15  A    between atoms: _45  and  _47
REMARK   16  A    between atoms: _47  and  _48
REMARK   17  A    between atoms: _47  and  _50
REMARK   18  A    between atoms: _50  and  _51
REMARK   19  A    between atoms: _53  and  _55
REMARK   20  A    between atoms: _55  and  _56
REMARK   21  A    between atoms: _55  and  _58
REMARK   22  A    between atoms: _58  and  _59
REMARK   23  A    between atoms: _61  and  _63
REMARK   24  A    between atoms: _63  and  _64
REMARK   25  A    between atoms: _63  and  _66
REMARK   26  A    between atoms: _69  and  _71
REMARK   27  A    between atoms: _71  and  _72
REMARK   28  A    between atoms: _71  and  _74
REMARK   29  A    between atoms: _76  and  _78
REMARK   30  A    between atoms: _78  and  _79
REMARK   31  A    between atoms: _82  and  _84
REMARK   32  A    between atoms: _84  and  _85
REMARK   33  A    between atoms: _88  and  _90
REMARK   34  A    between atoms: _90  and  _91
REMARK   35  A    between atoms: _90  and  _93
REMARK   36  A    between atoms: _93  and  _94
REMARK   37  A    between atoms: _94  and  _95
REMARK   38  A    between atoms: _95  and  _96
REMARK   39  A    between atoms: _105  and  _107
REMARK   40  A    between atoms: _107  and  _108
REMARK   41  A    between atoms: _107  and  _110
REMARK   42  A    between atoms: _113  and  _115
REMARK   43  A    between atoms: _115  and  _116
REMARK   44  A    between atoms: _119  and  _121
REMARK   45  A    between atoms: _121  and  _122
REMARK   46  A    between atoms: _121  and  _124
REMARK   47  A    between atoms: _127  and  _129
REMARK   48  A    between atoms: _129  and  _130
REMARK   49  A    between atoms: _129  and  _132
REMARK   50  A    between atoms: _132  and  _133
REMARK   51  A    between atoms: _133  and  _134
REMARK   52  A    between atoms: _134  and  _135
REMARK   53  A    between atoms: _135  and  _136
REMARK   54  A    between atoms: _140  and  _142
REMARK   55  A    between atoms: _142  and  _143
REMARK   56  A    between atoms: _142  and  _145
REMARK   57  A    between atoms: _145  and  _146
REMARK   58  A    between atoms: _146  and  _147
REMARK   59  A    between atoms: _147  and  _148
REMARK   60  A    between atoms: _148  and  _149
REMARK   61  A    between atoms: _153  and  _155
REMARK   62  A    between atoms: _155  and  _156
REMARK   63  A    between atoms: _155  and  _158
REMARK   64  A    between atoms: _158  and  _159
REMARK   65  A    between atoms: _162  and  _164
REMARK   66  A    between atoms: _164  and  _165
REMARK   67  A    between atoms: _164  and  _167
REMARK   68  A    between atoms: _167  and  _168
REMARK   69  A    between atoms: _168  and  _169
REMARK   70  A    between atoms: _169  and  _170
REMARK   71  A    between atoms: _179  and  _181
REMARK   72  A    between atoms: _181  and  _182
REMARK   73  A    between atoms: _181  and  _184
REMARK   74  A    between atoms: _184  and  _185
REMARK   75  A    between atoms: _185  and  _186
REMARK   76  A    between atoms: _186  and  _187
REMARK   77  A    between atoms: _196  and  _198
REMARK   78  A    between atoms: _198  and  _199
REMARK   79  A    between atoms: _198  and  _201
REMARK   80  A    between atoms: _201  and  _202
REMARK   81  A    between atoms: _202  and  _203
REMARK   82  A    between atoms: _206  and  _208
REMARK   83  A    between atoms: _208  and  _209
REMARK   84  A    between atoms: _208  and  _211
REMARK   85  A    between atoms: _211  and  _212
REMARK   86  A    between atoms: _215  and  _217
REMARK   87  A    between atoms: _217  and  _218
REMARK   88  A    between atoms: _217  and  _220
REMARK   89  A    between atoms: _220  and  _221
REMARK   90  A    between atoms: _224  and  _226
REMARK   91  A    between atoms: _226  and  _227
REMARK   92  A    between atoms: _226  and  _229
REMARK   93  A    between atoms: _229  and  _230
REMARK   94  A    between atoms: _233  and  _235
REMARK   95  A    between atoms: _235  and  _236
REMARK   96  A    between atoms: _235  and  _238
REMARK   97  A    between atoms: _238  and  _239
REMARK   98  A    between atoms: _239  and  _240
REMARK   99  A    between atoms: _242  and  _244
REMARK  100  A    between atoms: _244  and  _245
REMARK  101  A    between atoms: _244  and  _247
REMARK  102  A    between atoms: _247  and  _248
REMARK  103  A    between atoms: _253  and  _255
REMARK  104  A    between atoms: _255  and  _256
REMARK  105  A    between atoms: _255  and  _258
REMARK  106  A    between atoms: _258  and  _259
REMARK  107  A    between atoms: _264  and  _266
REMARK  108  A    between atoms: _266  and  _267
REMARK  109  A    between atoms: _266  and  _269
REMARK  110  A    between atoms: _272  and  _274
REMARK  111  A    between atoms: _274  and  _275
REMARK  112  A    between atoms: _274  and  _277
REMARK  113  A    between atoms: _277  and  _278
REMARK  114  A    between atoms: _281  and  _283
REMARK  115  A    between atoms: _283  and  _284
REMARK  116  A    between atoms: _286  and  _288
REMARK  117  A    between atoms: _288  and  _289
REMARK  118  A    between atoms: _288  and  _291
REMARK  119  A    between atoms: _291  and  _292
REMARK  120  A    between atoms: _295  and  _297
REMARK  121  A    between atoms: _297  and  _298
REMARK  122  A    between atoms: _297  and  _300
REMARK  123  A    between atoms: _300  and  _301
REMARK  124  A    between atoms: _304  and  _306
REMARK  125  A    between atoms: _306  and  _307
REMARK  126  A    between atoms: _306  and  _309
REMARK  127  A    between atoms: _309  and  _310
REMARK  128  A    between atoms: _313  and  _315
REMARK  129  A    between atoms: _315  and  _316
REMARK  130  A    between atoms: _315  and  _318
REMARK  131  A    between atoms: _318  and  _319
REMARK  132  A    between atoms: _324  and  _325
REMARK  133  A    between atoms: _327  and  _329
REMARK  134  A    between atoms: _329  and  _330
REMARK  135  A    between atoms: _329  and  _332
REMARK  136  A    between atoms: _332  and  _333
REMARK  137  A    between atoms: _336  and  _338
REMARK  138  A    between atoms: _338  and  _339
REMARK  139  A    between atoms: _338  and  _341
REMARK  140  A    between atoms: _344  and  _346
REMARK  141  A    between atoms: _346  and  _347
REMARK  142  A    between atoms: _346  and  _349
REMARK  143  A    between atoms: _349  and  _350
REMARK  144  A    between atoms: _353  and  _355
REMARK  145  A    between atoms: _355  and  _356
REMARK  146  A    between atoms: _355  and  _358
REMARK  147  A    between atoms: _358  and  _359
REMARK  148  A    between atoms: _364  and  _366
REMARK  149  A    between atoms: _366  and  _367
REMARK  150  A    between atoms: _366  and  _369
REMARK  151  A    between atoms: _369  and  _370
REMARK  152  A    between atoms: _373  and  _375
REMARK  153  A    between atoms: _375  and  _376
REMARK  154  A    between atoms: _375  and  _378
REMARK  155  A    between atoms: _378  and  _379
REMARK  156  A    between atoms: _379  and  _380
REMARK  157  A    between atoms: _382  and  _384
REMARK  158  A    between atoms: _384  and  _385
REMARK  159  A    between atoms: _387  and  _389
REMARK  160  A    between atoms: _389  and  _390
REMARK  161  A    between atoms: _393  and  _395
REMARK  162  A    between atoms: _395  and  _396
REMARK  163  A    between atoms: _395  and  _398
REMARK  164  A    between atoms: _398  and  _399
REMARK  165  A    between atoms: _402  and  _404
REMARK  166  A    between atoms: _404  and  _405
REMARK  167  A    between atoms: _404  and  _407
REMARK  168  A    between atoms: _407  and  _408
REMARK  169  A    between atoms: _413  and  _415
REMARK  170  A    between atoms: _415  and  _416
REMARK  171  A    between atoms: _418  and  _420
REMARK  172  A    between atoms: _420  and  _421
REMARK  173  A    between atoms: _420  and  _423
REMARK  174  A    between atoms: _423  and  _424
REMARK  175  A    between atoms: _427  and  _429
REMARK  176  A    between atoms: _429  and  _430
REMARK  177  A    between atoms: _429  and  _432
REMARK  178  A    between atoms: _432  and  _433
REMARK  179  A    between atoms: _438  and  _439
REMARK  180  A    between atoms: _441  and  _443
REMARK  181  A    between atoms: _443  and  _444
REMARK  182  A    between atoms: _443  and  _446
REMARK  183  A    between atoms: _446  and  _447
REMARK  184  A    between atoms: _450  and  _452
REMARK  185  A    between atoms: _452  and  _453
REMARK  186  A    between atoms: _452  and  _455
REMARK  187  A    between atoms: _455  and  _456
REMARK  188  A    between atoms: _461  and  _463
REMARK  189  A    between atoms: _463  and  _464
REMARK  190  A    between atoms: _467  and  _469
REMARK  191  A    between atoms: _469  and  _470
REMARK  192  A    between atoms: _469  and  _472
REMARK  193  A    between atoms: _472  and  _473
REMARK  194  A    between atoms: _476  and  _478
REMARK  195  A    between atoms: _478  and  _479
REMARK  196  A    between atoms: _478  and  _481
REMARK  197  A    between atoms: _481  and  _482
REMARK  198  A    between atoms: _485  and  _487
REMARK  199  A    between atoms: _487  and  _488
REMARK  200  A    between atoms: _487  and  _490
REMARK  201  A    between atoms: _490  and  _491
REMARK  202  A    between atoms: _496  and  _498
REMARK  203  A    between atoms: _498  and  _499
REMARK  204  A    between atoms: _498  and  _501
REMARK  205  A    between atoms: _501  and  _502
REMARK  206  A    between atoms: _502  and  _503
REMARK  207  A    between atoms: _503  and  _504
REMARK  208  A    between atoms: _513  and  _515
REMARK  209  A    between atoms: _515  and  _516
REMARK  210  A    between atoms: _515  and  _518
REMARK  211  A    between atoms: _518  and  _519
REMARK  212  A    between atoms: _522  and  _524
REMARK  213  A    between atoms: _524  and  _525
REMARK  214  A    between atoms: _524  and  _527
REMARK  215  A    between atoms: _527  and  _528
REMARK  216  A    between atoms: _531  and  _533
REMARK  217  A    between atoms: _533  and  _534
REMARK  218  A    between atoms: _533  and  _536
REMARK  219  A    between atoms: _536  and  _537
REMARK  220  A    between atoms: _539  and  _541
REMARK  221  A    between atoms: _541  and  _542
REMARK  222  A    between atoms: _541  and  _544
REMARK  223  A    between atoms: _544  and  _545
REMARK  224  A    between atoms: _550  and  _552
REMARK  225  A    between atoms: _552  and  _553
REMARK  226  A    between atoms: _552  and  _555
REMARK  227  A    between atoms: _555  and  _556
REMARK  228  A    between atoms: _559  and  _561
REMARK  229  A    between atoms: _561  and  _562
REMARK  230  A    between atoms: _565  and  _567
REMARK  231  A    between atoms: _567  and  _568
REMARK  232  A    between atoms: _567  and  _570
REMARK  233  A    between atoms: _570  and  _571
REMARK  234  A    between atoms: _571  and  _572
REMARK  235  A    between atoms: _572  and  _573
REMARK  236  A    between atoms: _573  and  _574
REMARK  237  A    between atoms: _578  and  _580
REMARK  238  A    between atoms: _580  and  _581
REMARK  239  A    between atoms: _580  and  _583
REMARK  240  A    between atoms: _583  and  _584
REMARK  241  A    between atoms: _587  and  _589
REMARK  242  A    between atoms: _589  and  _590
REMARK  243  A    between atoms: _589  and  _592
REMARK  244  A    between atoms: _592  and  _593
REMARK  245  A    between atoms: _596  and  _598
REMARK  246  A    between atoms: _598  and  _599
REMARK  247  A    between atoms: _598  and  _601
REMARK  248  A    between atoms: _601  and  _602
REMARK  249  A    between atoms: _605  and  _607
REMARK  250  A    between atoms: _607  and  _608
REMARK  251  A    between atoms: _607  and  _610
REMARK  252  A    between atoms: _610  and  _611
REMARK  253  A    between atoms: _617  and  _619
REMARK  254  A    between atoms: _619  and  _620
REMARK  255  A    between atoms: _622  and  _624
REMARK  256  A    between atoms: _624  and  _625
REMARK  257  A    between atoms: _624  and  _627
REMARK  258  A    between atoms: _627  and  _628
REMARK  259  A    between atoms: _631  and  _633
REMARK  260  A    between atoms: _633  and  _634
REMARK  261  A    between atoms: _633  and  _636
REMARK  262  A    between atoms: _636  and  _637
REMARK                            x       y       z     vdW  Elec       q    Type
REMARK                         _______ _______ _______ _____ _____    ______ ____
ROOT
ATOM      1  CA  ASN A   2      48.535  28.969  38.623  0.00  0.00    +0.158 C 
ENDROOT
BRANCH   1   3
ATOM      2  C   SER A   1      50.613  29.066  37.313  0.00  0.00    +0.241 C 
ATOM      3  N   ASN A   2      49.961  28.652  38.406  0.00  0.00    -0.297 N 
ATOM      4  H   ASN A   2      50.471  28.093  39.120  0.00  0.00    +0.150 HD
ATOM      5  O   SER A   1      50.060  29.674  36.381  0.00  0.00    -0.274 OA
BRANCH   2   6
ATOM      6  CA  SER A   1      52.113  28.739  37.210  0.00  0.00    +0.174 C 
BRANCH   6   7
ATOM      7  N   SER A   1      52.742  28.384  38.477  0.00  0.00    -0.236 NA
ATOM      8  H   SER A   1      53.096  27.416  38.617  0.00  0.00    +0.142 HD
ENDBRANCH   6   7
BRANCH   6   9
ATOM      9  CB  SER A   1      52.338  27.670  36.117  0.00  0.00    +0.163 C 
BRANCH   9  10
ATOM     10  OG  SER A   1      51.768  26.437  36.528  0.00  0.00    -0.380 OA
ATOM     11  H   SER A   1      50.796  26.557  36.675  0.00  0.00    +0.211 HD
ENDBRANCH   9  10
ENDBRANCH   6   9
ENDBRANCH   2   6
ENDBRANCH   1   3
BRANCH   1  12
ATOM     12  C   ASN A   2      48.326  30.192  39.530  0.00  0.00    +0.241 C 
ATOM     13  O   ASN A   2      47.198  30.440  40.030  0.00  0.00    -0.273 OA
ATOM     14  N   LEU A   3      49.402  30.959  39.743  0.00  0.00    -0.297 N 
ATOM     15  H   LEU A   3      50.311  30.704  39.308  0.00  0.00    +0.150 HD
BRANCH  14  16
ATOM     16  CA  LEU A   3      49.309  32.160  40.588  0.00  0.00    +0.149 C 
BRANCH  16  17
ATOM     17  C   LEU A   3      49.777  33.344  39.766  0.00  0.00    +0.241 C 
ATOM     18  N   ALA A   4      48.866  34.288  39.514  0.00  0.00    -0.298 N 
ATOM     19  H   ALA A   4      47.910  34.186  39.911  0.00  0.00    +0.150 HD
ATOM     20  O   LEU A   3      50.913  33.364  39.302  0.00  0.00    -0.273 OA
BRANCH  18  21
ATOM     21  CA  ALA A   4      49.169  35.448  38.705  0.00  0.00    +0.137 C 
ATOM     22  CB  ALA A   4      47.983  35.809  37.847  0.00  0.00    +0.030 C 
BRANCH  21  23
ATOM     23  C   ALA A   4      49.523  36.607  39.630  0.00  0.00    +0.227 C 
ATOM     24  O   ALA A   4      48.884  36.792  40.659  0.00  0.00    -0.286 OA
ENDBRANCH  21  23
ENDBRANCH  18  21
ENDBRANCH  16  17
BRANCH  16  25
ATOM     25  CB  LEU A   3      50.100  31.991  41.900  0.00  0.00    +0.029 C 
BRANCH  25  26
ATOM     26  CG  LEU A   3      49.705  30.769  42.744  0.00  0.00    +0.002 C 
ATOM     27  CD2 LEU A   3      50.809  30.348  43.760  0.00  0.00    +0.000 C 
ATOM     28  CD1 LEU A   3      48.359  30.963  43.459  0.00  0.00    +0.000 C 
ENDBRANCH  25  26
ENDBRANCH  16  25
ENDBRANCH  14  16
ENDBRANCH   1  12
BRANCH   1  29
ATOM     29  CB  ASN A   2      47.759  27.756  39.179  0.00  0.00    +0.114 C 
BRANCH  29  30
ATOM     30  CG  ASN A   2      47.345  26.772  38.089  0.00  0.00    +0.222 C 
ATOM     31  ND2 ASN A   2      47.244  25.491  38.453  0.00  0.00    -0.329 N 
ATOM     32 HD21 ASN A   2      47.419  25.216  39.440  0.00  0.00    +0.145 HD
ATOM     33 HD22 ASN A   2      46.990  24.769  37.749  0.00  0.00    +0.145 HD
ATOM     34  OD1 ASN A   2      47.147  27.145  36.933  0.00  0.00    -0.275 OA
ENDBRANCH  29  30
ENDBRANCH   1  29
TORSDOF 14
REMARK  Name = ../refined-set-2016/3e93/3e93_pocket.pdb
REMARK  262 active torsions:
REMARK  status: ('A' for Active; 'I' for Inactive)
REMARK    1  A    between atoms: _1  and  _3
REMARK    2  A    between atoms: _3  and  _4
REMARK    3  A    between atoms: _3  and  _6
REMARK    4  A    between atoms: _6  and  _7
REMARK    5  A    between atoms: _17  and  _19
REMARK    6  A    between atoms: _19  and  _20
REMARK    7  A    between atoms: _19  and  _22
REMARK    8  A    between atoms: _22  and  _23
REMARK    9  A    between atoms: _26  and  _27
REMARK   10  A    between atoms: _32  and  _34
REMARK   11  A    between atoms: _34  and  _35
REMARK   12  A    between atoms: _34  and  _37
REMARK   13  A    between atoms: _40  and  _42
REMARK   14  A    between atoms: _42  and  _43
REMARK   15  A    between atoms: _45  and  _47
REMARK   16  A    between atoms: _47  and  _48
REMARK   17  A    between atoms: _47  and  _50
REMARK   18  A    between atoms: _50  and  _51
REMARK   19  A    between atoms: _53  and  _55
REMARK   20  A    between atoms: _55  and  _56
REMARK   21  A    between atoms: _55  and  _58
REMARK   22  A    between atoms: _58  and  _59
REMARK   23  A    between atoms: _61  and  _63
REMARK   24  A    between atoms: _63  and  _64
REMARK   25  A    between atoms: _63  and  _66
REMARK   26  A    between atoms: _69  and  _71
REMARK   27  A    between atoms: _71  and  _72
REMARK   28  A    between atoms: _71  and  _74
REMARK   29  A    between atoms: _76  and  _78
REMARK   30  A    between atoms: _78  and  _79
REMARK   31  A    between atoms: _82  and  _84
REMARK   32  A    between atoms: _84  and  _85
REMARK   33  A    between atoms: _88  and  _90
REMARK   34  A    between atoms: _90  and  _91
REMARK   35  A    between atoms: _90  and  _93
REMARK   36  A    between atoms: _93  and  _94
REMARK   37  A    between atoms: _94  and  _95
REMARK   38  A    between atoms: _95  and  _96
REMARK   39  A    between atoms: _105  and  _107
REMARK   40  A    between atoms: _107  and  _108
REMARK   41  A    between atoms: _107  and  _110
REMARK   42  A    between atoms: _113  and  _115
REMARK   43  A    between atoms: _115  and  _116
REMARK   44  A    between atoms: _119  and  _121
REMARK   45  A    between atoms: _121  and  _122
REMARK   46  A    between atoms: _121  and  _124
REMARK   47  A    between atoms: _127  and  _129
REMARK   48  A    between atoms: _129  and  _130
REMARK   49  A    between atoms: _129  and  _132
REMARK   50  A    between atoms: _132  and  _133
REMARK   51  A    between atoms: _133  and  _134
REMARK   52  A    between atoms: _134  and  _135
REMARK   53  A    between atoms: _135  and  _136
REMARK   54  A    between atoms: _140  and  _142
REMARK   55  A    between atoms: _142  and  _143
REMARK   56  A    between atoms: _142  and  _145
REMARK   57  A    between atoms: _145  and  _146
REMARK   58  A    between atoms: _146  and  _147
REMARK   59  A    between atoms: _147  and  _148
REMARK   60  A    between atoms: _148  and  _149
REMARK   61  A    between atoms: _153  and  _155
REMARK   62  A    between atoms: _155  and  _156
REMARK   63  A    between atoms: _155  and  _158
REMARK   64  A    between atoms: _158  and  _159
REMARK   65  A    between atoms: _162  and  _164
REMARK   66  A    between atoms: _164  and  _165
REMARK   67  A    between atoms: _164  and  _167
REMARK   68  A    between atoms: _167  and  _168
REMARK   69  A    between atoms: _168  and  _169
REMARK   70  A    between atoms: _169  and  _170
REMARK   71  A    between atoms: _179  and  _181
REMARK   72  A    between atoms: _181  and  _182
REMARK   73  A    between atoms: _181  and  _184
REMARK   74  A    between atoms: _184  and  _185
REMARK   75  A    between atoms: _185  and  _186
REMARK   76  A    between atoms: _186  and  _187
REMARK   77  A    between atoms: _196  and  _198
REMARK   78  A    between atoms: _198  and  _199
REMARK   79  A    between atoms: _198  and  _201
REMARK   80  A    between atoms: _201  and  _202
REMARK   81  A    between atoms: _202  and  _203
REMARK   82  A    between atoms: _206  and  _208
REMARK   83  A    between atoms: _208  and  _209
REMARK   84  A    between atoms: _208  and  _211
REMARK   85  A    between atoms: _211  and  _212
REMARK   86  A    between atoms: _215  and  _217
REMARK   87  A    between atoms: _217  and  _218
REMARK   88  A    between atoms: _217  and  _220
REMARK   89  A    between atoms: _220  and  _221
REMARK   90  A    between atoms: _224  and  _226
REMARK   91  A    between atoms: _226  and  _227
REMARK   92  A    between atoms: _226  and  _229
REMARK   93  A    between atoms: _229  and  _230
REMARK   94  A    between atoms: _233  and  _235
REMARK   95  A    between atoms: _235  and  _236
REMARK   96  A    between atoms: _235  and  _238
REMARK   97  A    between atoms: _238  and  _239
REMARK   98  A    between atoms: _239  and  _240
REMARK   99  A    between atoms: _242  and  _244
REMARK  100  A    between atoms: _244  and  _245
REMARK  101  A    between atoms: _244  and  _247
REMARK  102  A    between atoms: _247  and  _248
REMARK  103  A    between atoms: _253  and  _255
REMARK  104  A    between atoms: _255  and  _256
REMARK  105  A    between atoms: _255  and  _258
REMARK  106  A    between atoms: _258  and  _259
REMARK  107  A    between atoms: _264  and  _266
REMARK  108  A    between atoms: _266  and  _267
REMARK  109  A    between atoms: _266  and  _269
REMARK  110  A    between atoms: _272  and  _274
REMARK  111  A    between atoms: _274  and  _275
REMARK  112  A    between atoms: _274  and  _277
REMARK  113  A    between atoms: _277  and  _278
REMARK  114  A    between atoms: _281  and  _283
REMARK  115  A    between atoms: _283  and  _284
REMARK  116  A    between atoms: _286  and  _288
REMARK  117  A    between atoms: _288  and  _289
REMARK  118  A    between atoms: _288  and  _291
REMARK  119  A    between atoms: _291  and  _292
REMARK  120  A    between atoms: _295  and  _297
REMARK  121  A    between atoms: _297  and  _298
REMARK  122  A    between atoms: _297  and  _300
REMARK  123  A    between atoms: _300  and  _301
REMARK  124  A    between atoms: _304  and  _306
REMARK  125  A    between atoms: _306  and  _307
REMARK  126  A    between atoms: _306  and  _309
REMARK  127  A    between atoms: _309  and  _310
REMARK  128  A    between atoms: _313  and  _315
REMARK  129  A    between atoms: _315  and  _316
REMARK  130  A    between atoms: _315  and  _318
REMARK  131  A    between atoms: _318  and  _319
REMARK  132  A    between atoms: _324  and  _325
REMARK  133  A    between atoms: _327  and  _329
REMARK  134  A    between atoms: _329  and  _330
REMARK  135  A    between atoms: _329  and  _332
REMARK  136  A    between atoms: _332  and  _333
REMARK  137  A    between atoms: _336  and  _338
REMARK  138  A    between atoms: _338  and  _339
REMARK  139  A    between atoms: _338  and  _341
REMARK  140  A    between atoms: _344  and  _346
REMARK  141  A    between atoms: _346  and  _347
REMARK  142  A    between atoms: _346  and  _349
REMARK  143  A    between atoms: _349  and  _350
REMARK  144  A    between atoms: _353  and  _355
REMARK  145  A    between atoms: _355  and  _356
REMARK  146  A    between atoms: _355  and  _358
REMARK  147  A    between atoms: _358  and  _359
REMARK  148  A    between atoms: _364  and  _366
REMARK  149  A    between atoms: _366  and  _367
REMARK  150  A    between atoms: _366  and  _369
REMARK  151  A    between atoms: _369  and  _370
REMARK  152  A    between atoms: _373  and  _375
REMARK  153  A    between atoms: _375  and  _376
REMARK  154  A    between atoms: _375  and  _378
REMARK  155  A    between atoms: _378  and  _379
REMARK  156  A    between atoms: _379  and  _380
REMARK  157  A    between atoms: _382  and  _384
REMARK  158  A    between atoms: _384  and  _385
REMARK  159  A    between atoms: _387  and  _389
REMARK  160  A    between atoms: _389  and  _390
REMARK  161  A    between atoms: _393  and  _395
REMARK  162  A    between atoms: _395  and  _396
REMARK  163  A    between atoms: _395  and  _398
REMARK  164  A    between atoms: _398  and  _399
REMARK  165  A    between atoms: _402  and  _404
REMARK  166  A    between atoms: _404  and  _405
REMARK  167  A    between atoms: _404  and  _407
REMARK  168  A    between atoms: _407  and  _408
REMARK  169  A    between atoms: _413  and  _415
REMARK  170  A    between atoms: _415  and  _416
REMARK  171  A    between atoms: _418  and  _420
REMARK  172  A    between atoms: _420  and  _421
REMARK  173  A    between atoms: _420  and  _423
REMARK  174  A    between atoms: _423  and  _424
REMARK  175  A    between atoms: _427  and  _429
REMARK  176  A    between atoms: _429  and  _430
REMARK  177  A    between atoms: _429  and  _432
REMARK  178  A    between atoms: _432  and  _433
REMARK  179  A    between atoms: _438  and  _439
REMARK  180  A    between atoms: _441  and  _443
REMARK  181  A    between atoms: _443  and  _444
REMARK  182  A    between atoms: _443  and  _446
REMARK  183  A    between atoms: _446  and  _447
REMARK  184  A    between atoms: _450  and  _452
REMARK  185  A    between atoms: _452  and  _453
REMARK  186  A    between atoms: _452  and  _455
REMARK  187  A    between atoms: _455  and  _456
REMARK  188  A    between atoms: _461  and  _463
REMARK  189  A    between atoms: _463  and  _464
REMARK  190  A    between atoms: _467  and  _469
REMARK  191  A    between atoms: _469  and  _470
REMARK  192  A    between atoms: _469  and  _472
REMARK  193  A    between atoms: _472  and  _473
REMARK  194  A    between atoms: _476  and  _478
REMARK  195  A    between atoms: _478  and  _479
REMARK  196  A    between atoms: _478  and  _481
REMARK  197  A    between atoms: _481  and  _482
REMARK  198  A    between atoms: _485  and  _487
REMARK  199  A    between atoms: _487  and  _488
REMARK  200  A    between atoms: _487  and  _490
REMARK  201  A    between atoms: _490  and  _491
REMARK  202  A    between atoms: _496  and  _498
REMARK  203  A    between atoms: _498  and  _499
REMARK  204  A    between atoms: _498  and  _501
REMARK  205  A    between atoms: _501  and  _502
REMARK  206  A    between atoms: _502  and  _503
REMARK  207  A    between atoms: _503  and  _504
REMARK  208  A    between atoms: _513  and  _515
REMARK  209  A    between atoms: _515  and  _516
REMARK  210  A    between atoms: _515  and  _518
REMARK  211  A    between atoms: _518  and  _519
REMARK  212  A    between atoms: _522  and  _524
REMARK  213  A    between atoms: _524  and  _525
REMARK  214  A    between atoms: _524  and  _527
REMARK  215  A    between atoms: _527  and  _528
REMARK  216  A    between atoms: _531  and  _533
REMARK  217  A    between atoms: _533  and  _534
REMARK  218  A    between atoms: _533  and  _536
REMARK  219  A    between atoms: _536  and  _537
REMARK  220  A    between atoms: _539  and  _541
REMARK  221  A    between atoms: _541  and  _542
REMARK  222  A    between atoms: _541  and  _544
REMARK  223  A    between atoms: _544  and  _545
REMARK  224  A    between atoms: _550  and  _552
REMARK  225  A    between atoms: _552  and  _553
REMARK  226  A    between atoms: _552  and  _555
REMARK  227  A    between atoms: _555  and  _556
REMARK  228  A    between atoms: _559  and  _561
REMARK  229  A    between atoms: _561  and  _562
REMARK  230  A    between atoms: _565  and  _567
REMARK  231  A    between atoms: _567  and  _568
REMARK  232  A    between atoms: _567  and  _570
REMARK  233  A    between atoms: _570  and  _571
REMARK  234  A    between atoms: _571  and  _572
REMARK  235  A    between atoms: _572  and  _573
REMARK  236  A    between atoms: _573  and  _574
REMARK  237  A    between atoms: _578  and  _580
REMARK  238  A    between atoms: _580  and  _581
REMARK  239  A    between atoms: _580  and  _583
REMARK  240  A    between atoms: _583  and  _584
REMARK  241  A    between atoms: _587  and  _589
REMARK  242  A    between atoms: _589  and  _590
REMARK  243  A    between atoms: _589  and  _592
REMARK  244  A    between atoms: _592  and  _593
REMARK  245  A    between atoms: _596  and  _598
REMARK  246  A    between atoms: _598  and  _599
REMARK  247  A    between atoms: _598  and  _601
REMARK  248  A    between atoms: _601  and  _602
REMARK  249  A    between atoms: _605  and  _607
REMARK  250  A    between atoms: _607  and  _608
REMARK  251  A    between atoms: _607  and  _610
REMARK  252  A    between atoms: _610  and  _611
REMARK  253  A    between atoms: _617  and  _619
REMARK  254  A    between atoms: _619  and  _620
REMARK  255  A    between atoms: _622  and  _624
REMARK  256  A    between atoms: _624  and  _625
REMARK  257  A    between atoms: _624  and  _627
REMARK  258  A    between atoms: _627  and  _628
REMARK  259  A    between atoms: _631  and  _633
REMARK  260  A    between atoms: _633  and  _634
REMARK  261  A    between atoms: _633  and  _636
REMARK  262  A    between atoms: _636  and  _637
REMARK                            x       y       z     vdW  Elec       q    Type
REMARK                         _______ _______ _______ _____ _____    ______ ____
ROOT
ATOM      1  C   LEU A   3      43.818  29.127  38.814  0.00  0.00    +0.241 C 
ATOM      2  O   LEU A   3      44.623  28.507  39.497  0.00  0.00    -0.273 OA
ATOM      3  N   ASP A   4      43.161  28.576  37.802  0.00  0.00    -0.297 N 
ATOM      4  H   ASP A   4      42.349  29.069  37.377  0.00  0.00    +0.150 HD
ENDROOT
BRANCH   3   5
ATOM      5  CA  ASP A   4      43.579  27.280  37.287  0.00  0.00    +0.160 C 
BRANCH   5   6
ATOM      6  C   ASP A   4      43.651  27.348  35.779  0.00  0.00    +0.241 C 
ATOM      7  N   PHE A   5      44.879  27.411  35.262  0.00  0.00    -0.297 N 
ATOM      8  H   PHE A   5      45.699  27.417  35.902  0.00  0.00    +0.150 HD
ATOM      9  O   ASP A   4      42.624  27.360  35.092  0.00  0.00    -0.273 OA
BRANCH   7  10
ATOM     10  CA  PHE A   5      45.102  27.472  33.805  0.00  0.00    +0.153 C 
BRANCH  10  11
ATOM     11  C   PHE A   5      45.068  26.098  33.163  0.00  0.00    +0.241 C 
ATOM     12  N   GLY A   6      44.738  25.069  33.937  0.00  0.00    -0.295 N 
ATOM     13  H   GLY A   6      44.520  25.234  34.940  0.00  0.00    +0.150 HD
ATOM     14  O   PHE A   5      45.425  25.963  31.993  0.00  0.00    -0.273 OA
BRANCH  12  15
ATOM     15  CA  GLY A   6      44.676  23.705  33.401  0.00  0.00    +0.176 C 
BRANCH  15  16
ATOM     16  C   GLY A   6      43.803  23.669  32.168  0.00  0.00    +0.243 C 
ATOM     17  O   GLY A   6      42.624  24.037  32.229  0.00  0.00    -0.273 OA
ATOM     18  N   LEU A   7      44.405  23.279  31.043  0.00  0.00    -0.298 N 
ATOM     19  H   LEU A   7      45.426  23.085  31.069  0.00  0.00    +0.150 HD
BRANCH  18  20
ATOM     20  CA  LEU A   7      43.697  23.112  29.778  0.00  0.00    +0.137 C 
BRANCH  20  21
ATOM     21  C   LEU A   7      43.893  21.696  29.260  0.00  0.00    +0.227 C 
ATOM     22  O   LEU A   7      43.487  21.392  28.142  0.00  0.00    -0.286 OA
ENDBRANCH  20  21
BRANCH  20  23
ATOM     23  CB  LEU A   7      44.157  24.131  28.714  0.00  0.00    +0.028 C 
BRANCH  23  24
ATOM     24  CG  LEU A   7      43.924  25.644  28.889  0.00  0.00    +0.002 C 
ATOM     25  CD2 LEU A   7      42.451  25.999  29.164  0.00  0.00    +0.000 C 
ATOM     26  CD1 LEU A   7      44.463  26.431  27.673  0.00  0.00    +0.000 C 
ENDBRANCH  23  24
ENDBRANCH  20  23
ENDBRANCH  18  20
ENDBRANCH  15  16
ENDBRANCH  12  15
ENDBRANCH  10  11
BRANCH  10  27
ATOM     27  CB  PHE A   5      46.487  28.020  33.472  0.00  0.00    +0.055 C 
BRANCH  27  28
ATOM     28  CG  PHE A   5      46.695  29.451  33.820  0.00  0.00    -0.020 A 
ATOM     29  CD2 PHE A   5      47.596  29.802  34.818  0.00  0.00    -0.004 A 
ATOM     30  CE2 PHE A   5      47.824  31.140  35.142  0.00  0.00    -0.000 A 
ATOM     31  CZ  PHE A   5      47.157  32.143  34.440  0.00  0.00    -0.000 A 
ATOM     32  CE1 PHE A   5      46.262  31.804  33.429  0.00  0.00    -0.000 A 
ATOM     33  CD1 PHE A   5      46.045  30.458  33.114  0.00  0.00    -0.004 A 
ENDBRANCH  27  28
ENDBRANCH  10  27
ENDBRANCH   7  10
ENDBRANCH   5   6
BRANCH   5  34
ATOM     34  CB  ASP A   4      42.650  26.151  37.767  0.00  0.00    +0.143 C 
BRANCH  34  35
ATOM     35  CG  ASP A   4      43.224  24.771  37.514  0.00  0.00    +0.367 C 
ATOM     36  OD2 ASP A   4      43.014  23.881  38.371  0.00  0.00    -0.246 OA
ATOM     37  OD1 ASP A   4      43.885  24.569  36.469  0.00  0.00    -0.246 OA
ENDBRANCH  34  35
ENDBRANCH   5  34
ENDBRANCH   3   5
BRANCH   1  38
ATOM     38  CA  LEU A   3      43.475  30.587  39.149  0.00  0.00    +0.149 C 
BRANCH  38  41
ATOM     39  C   ILE A   2      43.732  31.857  41.189  0.00  0.00    +0.241 C 
ATOM     40  O   ILE A   2      42.559  32.244  41.146  0.00  0.00    -0.273 OA
ATOM     41  N   LEU A   3      44.282  31.133  40.221  0.00  0.00    -0.297 N 
ATOM     42  H   LEU A   3      45.307  30.955  40.233  0.00  0.00    +0.150 HD
BRANCH  39  43
ATOM     43  CA  ILE A   2      44.637  32.198  42.375  0.00  0.00    +0.148 C 
BRANCH  43  45
ATOM     44  C   LYS A   1      45.469  34.446  41.948  0.00  0.00    +0.238 C 
ATOM     45  N   ILE A   2      44.646  33.634  42.592  0.00  0.00    -0.297 N 
ATOM     46  H   ILE A   2      43.980  34.040  43.280  0.00  0.00    +0.150 HD
ATOM     47  O   LYS A   1      46.372  34.067  41.183  0.00  0.00    -0.274 OA
BRANCH  44  48
ATOM     48  CA  LYS A   1      45.213  35.917  42.171  0.00  0.00    +0.145 C 
BRANCH  48  49
ATOM     49  N   LYS A   1      46.472  36.630  42.359  0.00  0.00    -0.238 NA
ATOM     50  H   LYS A   1      47.239  36.486  41.672  0.00  0.00    +0.142 HD
ENDBRANCH  48  49
BRANCH  48  51
ATOM     51  CB  LYS A   1      44.443  36.460  40.960  0.00  0.00    +0.026 C 
BRANCH  51  52
ATOM     52  CG  LYS A   1      43.926  37.863  41.175  0.00  0.00    -0.000 C 
BRANCH  52  53
ATOM     53  CD  LYS A   1      42.470  37.987  40.788  0.00  0.00    -0.024 C 
BRANCH  53  54
ATOM     54  CE  LYS A   1      42.031  39.447  40.788  0.00  0.00    -0.086 C 
BRANCH  54  55
ATOM     55  NZ  LYS A   1      42.379  40.105  39.489  0.00  0.00    +0.380 N 
ATOM     56  HZ1 LYS A   1      42.071  41.098  39.511  0.00  0.00    -0.089 HD
ATOM     57  HZ2 LYS A   1      43.408  40.063  39.345  0.00  0.00    -0.089 HD
ATOM     58  HZ3 LYS A   1      41.899  39.609  38.711  0.00  0.00    -0.089 HD
ENDBRANCH  54  55
ENDBRANCH  53  54
ENDBRANCH  52  53
ENDBRANCH  51  52
ENDBRANCH  48  51
ENDBRANCH  44  48
ENDBRANCH  43  45
BRANCH  43  59
ATOM     59  CB  ILE A   2      44.132  31.458  43.615  0.00  0.00    +0.027 C 
ATOM     60  CG2 ILE A   2      44.050  29.921  43.306  0.00  0.00    +0.002 C 
BRANCH  59  61
ATOM     61  CG1 ILE A   2      44.978  31.824  44.866  0.00  0.00    +0.002 C 
ATOM     62  CD1 ILE A   2      44.371  31.322  46.219  0.00  0.00    +0.000 C 
ENDBRANCH  59  61
ENDBRANCH  43  59
ENDBRANCH  39  43
ENDBRANCH  38  41
BRANCH  38  63
ATOM     63  CB  LEU A   3      43.543  31.472  37.899  0.00  0.00    +0.029 C 
BRANCH  63  64
ATOM     64  CG  LEU A   3      44.797  31.901  37.156  0.00  0.00    +0.002 C 
ATOM     65  CD2 LEU A   3      45.509  33.063  37.829  0.00  0.00    +0.000 C 
ATOM     66  CD1 LEU A   3      44.248  32.375  35.832  0.00  0.00    +0.000 C 
ENDBRANCH  63  64
ENDBRANCH  38  63
ENDBRANCH   1  38
TORSDOF 29
REMARK  Name = ../refined-set-2016/3e93/3e93_pocket.pdb
REMARK  262 active torsions:
REMARK  status: ('A' for Active; 'I' for Inactive)
REMARK    1  A    between atoms: _1  and  _3
REMARK    2  A    between atoms: _3  and  _4
REMARK    3  A    between atoms: _3  and  _6
REMARK    4  A    between atoms: _6  and  _7
REMARK    5  A    between atoms: _17  and  _19
REMARK    6  A    between atoms: _19  and  _20
REMARK    7  A    between atoms: _19  and  _22
REMARK    8  A    between atoms: _22  and  _23
REMARK    9  A    between atoms: _26  and  _27
REMARK   10  A    between atoms: _32  and  _34
REMARK   11  A    between atoms: _34  and  _35
REMARK   12  A    between atoms: _34  and  _37
REMARK   13  A    between atoms: _40  and  _42
REMARK   14  A    between atoms: _42  and  _43
REMARK   15  A    between atoms: _45  and  _47
REMARK   16  A    between atoms: _47  and  _48
REMARK   17  A    between atoms: _47  and  _50
REMARK   18  A    between atoms: _50  and  _51
REMARK   19  A    between atoms: _53  and  _55
REMARK   20  A    between atoms: _55  and  _56
REMARK   21  A    between atoms: _55  and  _58
REMARK   22  A    between atoms: _58  and  _59
REMARK   23  A    between atoms: _61  and  _63
REMARK   24  A    between atoms: _63  and  _64
REMARK   25  A    between atoms: _63  and  _66
REMARK   26  A    between atoms: _69  and  _71
REMARK   27  A    between atoms: _71  and  _72
REMARK   28  A    between atoms: _71  and  _74
REMARK   29  A    between atoms: _76  and  _78
REMARK   30  A    between atoms: _78  and  _79
REMARK   31  A    between atoms: _82  and  _84
REMARK   32  A    between atoms: _84  and  _85
REMARK   33  A    between atoms: _88  and  _90
REMARK   34  A    between atoms: _90  and  _91
REMARK   35  A    between atoms: _90  and  _93
REMARK   36  A    between atoms: _93  and  _94
REMARK   37  A    between atoms: _94  and  _95
REMARK   38  A    between atoms: _95  and  _96
REMARK   39  A    between atoms: _105  and  _107
REMARK   40  A    between atoms: _107  and  _108
REMARK   41  A    between atoms: _107  and  _110
REMARK   42  A    between atoms: _113  and  _115
REMARK   43  A    between atoms: _115  and  _116
REMARK   44  A    between atoms: _119  and  _121
REMARK   45  A    between atoms: _121  and  _122
REMARK   46  A    between atoms: _121  and  _124
REMARK   47  A    between atoms: _127  and  _129
REMARK   48  A    between atoms: _129  and  _130
REMARK   49  A    between atoms: _129  and  _132
REMARK   50  A    between atoms: _132  and  _133
REMARK   51  A    between atoms: _133  and  _134
REMARK   52  A    between atoms: _134  and  _135
REMARK   53  A    between atoms: _135  and  _136
REMARK   54  A    between atoms: _140  and  _142
REMARK   55  A    between atoms: _142  and  _143
REMARK   56  A    between atoms: _142  and  _145
REMARK   57  A    between atoms: _145  and  _146
REMARK   58  A    between atoms: _146  and  _147
REMARK   59  A    between atoms: _147  and  _148
REMARK   60  A    between atoms: _148  and  _149
REMARK   61  A    between atoms: _153  and  _155
REMARK   62  A    between atoms: _155  and  _156
REMARK   63  A    between atoms: _155  and  _158
REMARK   64  A    between atoms: _158  and  _159
REMARK   65  A    between atoms: _162  and  _164
REMARK   66  A    between atoms: _164  and  _165
REMARK   67  A    between atoms: _164  and  _167
REMARK   68  A    between atoms: _167  and  _168
REMARK   69  A    between atoms: _168  and  _169
REMARK   70  A    between atoms: _169  and  _170
REMARK   71  A    between atoms: _179  and  _181
REMARK   72  A    between atoms: _181  and  _182
REMARK   73  A    between atoms: _181  and  _184
REMARK   74  A    between atoms: _184  and  _185
REMARK   75  A    between atoms: _185  and  _186
REMARK   76  A    between atoms: _186  and  _187
REMARK   77  A    between atoms: _196  and  _198
REMARK   78  A    between atoms: _198  and  _199
REMARK   79  A    between atoms: _198  and  _201
REMARK   80  A    between atoms: _201  and  _202
REMARK   81  A    between atoms: _202  and  _203
REMARK   82  A    between atoms: _206  and  _208
REMARK   83  A    between atoms: _208  and  _209
REMARK   84  A    between atoms: _208  and  _211
REMARK   85  A    between atoms: _211  and  _212
REMARK   86  A    between atoms: _215  and  _217
REMARK   87  A    between atoms: _217  and  _218
REMARK   88  A    between atoms: _217  and  _220
REMARK   89  A    between atoms: _220  and  _221
REMARK   90  A    between atoms: _224  and  _226
REMARK   91  A    between atoms: _226  and  _227
REMARK   92  A    between atoms: _226  and  _229
REMARK   93  A    between atoms: _229  and  _230
REMARK   94  A    between atoms: _233  and  _235
REMARK   95  A    between atoms: _235  and  _236
REMARK   96  A    between atoms: _235  and  _238
REMARK   97  A    between atoms: _238  and  _239
REMARK   98  A    between atoms: _239  and  _240
REMARK   99  A    between atoms: _242  and  _244
REMARK  100  A    between atoms: _244  and  _245
REMARK  101  A    between atoms: _244  and  _247
REMARK  102  A    between atoms: _247  and  _248
REMARK  103  A    between atoms: _253  and  _255
REMARK  104  A    between atoms: _255  and  _256
REMARK  105  A    between atoms: _255  and  _258
REMARK  106  A    between atoms: _258  and  _259
REMARK  107  A    between atoms: _264  and  _266
REMARK  108  A    between atoms: _266  and  _267
REMARK  109  A    between atoms: _266  and  _269
REMARK  110  A    between atoms: _272  and  _274
REMARK  111  A    between atoms: _274  and  _275
REMARK  112  A    between atoms: _274  and  _277
REMARK  113  A    between atoms: _277  and  _278
REMARK  114  A    between atoms: _281  and  _283
REMARK  115  A    between atoms: _283  and  _284
REMARK  116  A    between atoms: _286  and  _288
REMARK  117  A    between atoms: _288  and  _289
REMARK  118  A    between atoms: _288  and  _291
REMARK  119  A    between atoms: _291  and  _292
REMARK  120  A    between atoms: _295  and  _297
REMARK  121  A    between atoms: _297  and  _298
REMARK  122  A    between atoms: _297  and  _300
REMARK  123  A    between atoms: _300  and  _301
REMARK  124  A    between atoms: _304  and  _306
REMARK  125  A    between atoms: _306  and  _307
REMARK  126  A    between atoms: _306  and  _309
REMARK  127  A    between atoms: _309  and  _310
REMARK  128  A    between atoms: _313  and  _315
REMARK  129  A    between atoms: _315  and  _316
REMARK  130  A    between atoms: _315  and  _318
REMARK  131  A    between atoms: _318  and  _319
REMARK  132  A    between atoms: _324  and  _325
REMARK  133  A    between atoms: _327  and  _329
REMARK  134  A    between atoms: _329  and  _330
REMARK  135  A    between atoms: _329  and  _332
REMARK  136  A    between atoms: _332  and  _333
REMARK  137  A    between atoms: _336  and  _338
REMARK  138  A    between atoms: _338  and  _339
REMARK  139  A    between atoms: _338  and  _341
REMARK  140  A    between atoms: _344  and  _346
REMARK  141  A    between atoms: _346  and  _347
REMARK  142  A    between atoms: _346  and  _349
REMARK  143  A    between atoms: _349  and  _350
REMARK  144  A    between atoms: _353  and  _355
REMARK  145  A    between atoms: _355  and  _356
REMARK  146  A    between atoms: _355  and  _358
REMARK  147  A    between atoms: _358  and  _359
REMARK  148  A    between atoms: _364  and  _366
REMARK  149  A    between atoms: _366  and  _367
REMARK  150  A    between atoms: _366  and  _369
REMARK  151  A    between atoms: _369  and  _370
REMARK  152  A    between atoms: _373  and  _375
REMARK  153  A    between atoms: _375  and  _376
REMARK  154  A    between atoms: _375  and  _378
REMARK  155  A    between atoms: _378  and  _379
REMARK  156  A    between atoms: _379  and  _380
REMARK  157  A    between atoms: _382  and  _384
REMARK  158  A    between atoms: _384  and  _385
REMARK  159  A    between atoms: _387  and  _389
REMARK  160  A    between atoms: _389  and  _390
REMARK  161  A    between atoms: _393  and  _395
REMARK  162  A    between atoms: _395  and  _396
REMARK  163  A    between atoms: _395  and  _398
REMARK  164  A    between atoms: _398  and  _399
REMARK  165  A    between atoms: _402  and  _404
REMARK  166  A    between atoms: _404  and  _405
REMARK  167  A    between atoms: _404  and  _407
REMARK  168  A    between atoms: _407  and  _408
REMARK  169  A    between atoms: _413  and  _415
REMARK  170  A    between atoms: _415  and  _416
REMARK  171  A    between atoms: _418  and  _420
REMARK  172  A    between atoms: _420  and  _421
REMARK  173  A    between atoms: _420  and  _423
REMARK  174  A    between atoms: _423  and  _424
REMARK  175  A    between atoms: _427  and  _429
REMARK  176  A    between atoms: _429  and  _430
REMARK  177  A    between atoms: _429  and  _432
REMARK  178  A    between atoms: _432  and  _433
REMARK  179  A    between atoms: _438  and  _439
REMARK  180  A    between atoms: _441  and  _443
REMARK  181  A    between atoms: _443  and  _444
REMARK  182  A    between atoms: _443  and  _446
REMARK  183  A    between atoms: _446  and  _447
REMARK  184  A    between atoms: _450  and  _452
REMARK  185  A    between atoms: _452  and  _453
REMARK  186  A    between atoms: _452  and  _455
REMARK  187  A    between atoms: _455  and  _456
REMARK  188  A    between atoms: _461  and  _463
REMARK  189  A    between atoms: _463  and  _464
REMARK  190  A    between atoms: _467  and  _469
REMARK  191  A    between atoms: _469  and  _470
REMARK  192  A    between atoms: _469  and  _472
REMARK  193  A    between atoms: _472  and  _473
REMARK  194  A    between atoms: _476  and  _478
REMARK  195  A    between atoms: _478  and  _479
REMARK  196  A    between atoms: _478  and  _481
REMARK  197  A    between atoms: _481  and  _482
REMARK  198  A    between atoms: _485  and  _487
REMARK  199  A    between atoms: _487  and  _488
REMARK  200  A    between atoms: _487  and  _490
REMARK  201  A    between atoms: _490  and  _491
REMARK  202  A    between atoms: _496  and  _498
REMARK  203  A    between atoms: _498  and  _499
REMARK  204  A    between atoms: _498  and  _501
REMARK  205  A    between atoms: _501  and  _502
REMARK  206  A    between atoms: _502  and  _503
REMARK  207  A    between atoms: _503  and  _504
REMARK  208  A    between atoms: _513  and  _515
REMARK  209  A    between atoms: _515  and  _516
REMARK  210  A    between atoms: _515  and  _518
REMARK  211  A    between atoms: _518  and  _519
REMARK  212  A    between atoms: _522  and  _524
REMARK  213  A    between atoms: _524  and  _525
REMARK  214  A    between atoms: _524  and  _527
REMARK  215  A    between atoms: _527  and  _528
REMARK  216  A    between atoms: _531  and  _533
REMARK  217  A    between atoms: _533  and  _534
REMARK  218  A    between atoms: _533  and  _536
REMARK  219  A    between atoms: _536  and  _537
REMARK  220  A    between atoms: _539  and  _541
REMARK  221  A    between atoms: _541  and  _542
REMARK  222  A    between atoms: _541  and  _544
REMARK  223  A    between atoms: _544  and  _545
REMARK  224  A    between atoms: _550  and  _552
REMARK  225  A    between atoms: _552  and  _553
REMARK  226  A    between atoms: _552  and  _555
REMARK  227  A    between atoms: _555  and  _556
REMARK  228  A    between atoms: _559  and  _561
REMARK  229  A    between atoms: _561  and  _562
REMARK  230  A    between atoms: _565  and  _567
REMARK  231  A    between atoms: _567  and  _568
REMARK  232  A    between atoms: _567  and  _570
REMARK  233  A    between atoms: _570  and  _571
REMARK  234  A    between atoms: _571  and  _572
REMARK  235  A    between atoms: _572  and  _573
REMARK  236  A    between atoms: _573  and  _574
REMARK  237  A    between atoms: _578  and  _580
REMARK  238  A    between atoms: _580  and  _581
REMARK  239  A    between atoms: _580  and  _583
REMARK  240  A    between atoms: _583  and  _584
REMARK  241  A    between atoms: _587  and  _589
REMARK  242  A    between atoms: _589  and  _590
REMARK  243  A    between atoms: _589  and  _592
REMARK  244  A    between atoms: _592  and  _593
REMARK  245  A    between atoms: _596  and  _598
REMARK  246  A    between atoms: _598  and  _599
REMARK  247  A    between atoms: _598  and  _601
REMARK  248  A    between atoms: _601  and  _602
REMARK  249  A    between atoms: _605  and  _607
REMARK  250  A    between atoms: _607  and  _608
REMARK  251  A    between atoms: _607  and  _610
REMARK  252  A    between atoms: _610  and  _611
REMARK  253  A    between atoms: _617  and  _619
REMARK  254  A    between atoms: _619  and  _620
REMARK  255  A    between atoms: _622  and  _624
REMARK  256  A    between atoms: _624  and  _625
REMARK  257  A    between atoms: _624  and  _627
REMARK  258  A    between atoms: _627  and  _628
REMARK  259  A    between atoms: _631  and  _633
REMARK  260  A    between atoms: _633  and  _634
REMARK  261  A    between atoms: _633  and  _636
REMARK  262  A    between atoms: _636  and  _637
REMARK                            x       y       z     vdW  Elec       q    Type
REMARK                         _______ _______ _______ _____ _____    ______ ____
ROOT
ATOM      1  CA  ASP A   1      46.275  22.768  49.184  0.00  0.00    +0.144 C 
ENDROOT
BRANCH   1   2
ATOM      2  N   ASP A   1      45.869  21.459  49.687  0.00  0.00    -0.239 NA
ATOM      3  H   ASP A   1      44.899  21.327  50.038  0.00  0.00    +0.142 HD
ENDBRANCH   1   2
BRANCH   1   4
ATOM      4  C   ASP A   1      47.291  23.427  50.100  0.00  0.00    +0.225 C 
ATOM      5  O   ASP A   1      48.122  24.206  49.645  0.00  0.00    -0.287 OA
ENDBRANCH   1   4
BRANCH   1   6
ATOM      6  CB  ASP A   1      45.062  23.691  49.014  0.00  0.00    +0.139 C 
BRANCH   6   7
ATOM      7  CG  ASP A   1      44.188  23.304  47.836  0.00  0.00    +0.367 C 
ATOM      8  OD2 ASP A   1      42.994  23.690  47.830  0.00  0.00    -0.246 OA
ATOM      9  OD1 ASP A   1      44.681  22.611  46.922  0.00  0.00    -0.246 OA
ENDBRANCH   6   7
ENDBRANCH   1   6
TORSDOF 4
REMARK  Name = ../refined-set-2016/3e93/3e93_pocket.pdb
REMARK  262 active torsions:
REMARK  status: ('A' for Active; 'I' for Inactive)
REMARK    1  A    between atoms: _1  and  _3
REMARK    2  A    between atoms: _3  and  _4
REMARK    3  A    between atoms: _3  and  _6
REMARK    4  A    between atoms: _6  and  _7
REMARK    5  A    between atoms: _17  and  _19
REMARK    6  A    between atoms: _19  and  _20
REMARK    7  A    between atoms: _19  and  _22
REMARK    8  A    between atoms: _22  and  _23
REMARK    9  A    between atoms: _26  and  _27
REMARK   10  A    between atoms: _32  and  _34
REMARK   11  A    between atoms: _34  and  _35
REMARK   12  A    between atoms: _34  and  _37
REMARK   13  A    between atoms: _40  and  _42
REMARK   14  A    between atoms: _42  and  _43
REMARK   15  A    between atoms: _45  and  _47
REMARK   16  A    between atoms: _47  and  _48
REMARK   17  A    between atoms: _47  and  _50
REMARK   18  A    between atoms: _50  and  _51
REMARK   19  A    between atoms: _53  and  _55
REMARK   20  A    between atoms: _55  and  _56
REMARK   21  A    between atoms: _55  and  _58
REMARK   22  A    between atoms: _58  and  _59
REMARK   23  A    between atoms: _61  and  _63
REMARK   24  A    between atoms: _63  and  _64
REMARK   25  A    between atoms: _63  and  _66
REMARK   26  A    between atoms: _69  and  _71
REMARK   27  A    between atoms: _71  and  _72
REMARK   28  A    between atoms: _71  and  _74
REMARK   29  A    between atoms: _76  and  _78
REMARK   30  A    between atoms: _78  and  _79
REMARK   31  A    between atoms: _82  and  _84
REMARK   32  A    between atoms: _84  and  _85
REMARK   33  A    between atoms: _88  and  _90
REMARK   34  A    between atoms: _90  and  _91
REMARK   35  A    between atoms: _90  and  _93
REMARK   36  A    between atoms: _93  and  _94
REMARK   37  A    between atoms: _94  and  _95
REMARK   38  A    between atoms: _95  and  _96
REMARK   39  A    between atoms: _105  and  _107
REMARK   40  A    between atoms: _107  and  _108
REMARK   41  A    between atoms: _107  and  _110
REMARK   42  A    between atoms: _113  and  _115
REMARK   43  A    between atoms: _115  and  _116
REMARK   44  A    between atoms: _119  and  _121
REMARK   45  A    between atoms: _121  and  _122
REMARK   46  A    between atoms: _121  and  _124
REMARK   47  A    between atoms: _127  and  _129
REMARK   48  A    between atoms: _129  and  _130
REMARK   49  A    between atoms: _129  and  _132
REMARK   50  A    between atoms: _132  and  _133
REMARK   51  A    between atoms: _133  and  _134
REMARK   52  A    between atoms: _134  and  _135
REMARK   53  A    between atoms: _135  and  _136
REMARK   54  A    between atoms: _140  and  _142
REMARK   55  A    between atoms: _142  and  _143
REMARK   56  A    between atoms: _142  and  _145
REMARK   57  A    between atoms: _145  and  _146
REMARK   58  A    between atoms: _146  and  _147
REMARK   59  A    between atoms: _147  and  _148
REMARK   60  A    between atoms: _148  and  _149
REMARK   61  A    between atoms: _153  and  _155
REMARK   62  A    between atoms: _155  and  _156
REMARK   63  A    between atoms: _155  and  _158
REMARK   64  A    between atoms: _158  and  _159
REMARK   65  A    between atoms: _162  and  _164
REMARK   66  A    between atoms: _164  and  _165
REMARK   67  A    between atoms: _164  and  _167
REMARK   68  A    between atoms: _167  and  _168
REMARK   69  A    between atoms: _168  and  _169
REMARK   70  A    between atoms: _169  and  _170
REMARK   71  A    between atoms: _179  and  _181
REMARK   72  A    between atoms: _181  and  _182
REMARK   73  A    between atoms: _181  and  _184
REMARK   74  A    between atoms: _184  and  _185
REMARK   75  A    between atoms: _185  and  _186
REMARK   76  A    between atoms: _186  and  _187
REMARK   77  A    between atoms: _196  and  _198
REMARK   78  A    between atoms: _198  and  _199
REMARK   79  A    between atoms: _198  and  _201
REMARK   80  A    between atoms: _201  and  _202
REMARK   81  A    between atoms: _202  and  _203
REMARK   82  A    between atoms: _206  and  _208
REMARK   83  A    between atoms: _208  and  _209
REMARK   84  A    between atoms: _208  and  _211
REMARK   85  A    between atoms: _211  and  _212
REMARK   86  A    between atoms: _215  and  _217
REMARK   87  A    between atoms: _217  and  _218
REMARK   88  A    between atoms: _217  and  _220
REMARK   89  A    between atoms: _220  and  _221
REMARK   90  A    between atoms: _224  and  _226
REMARK   91  A    between atoms: _226  and  _227
REMARK   92  A    between atoms: _226  and  _229
REMARK   93  A    between atoms: _229  and  _230
REMARK   94  A    between atoms: _233  and  _235
REMARK   95  A    between atoms: _235  and  _236
REMARK   96  A    between atoms: _235  and  _238
REMARK   97  A    between atoms: _238  and  _239
REMARK   98  A    between atoms: _239  and  _240
REMARK   99  A    between atoms: _242  and  _244
REMARK  100  A    between atoms: _244  and  _245
REMARK  101  A    between atoms: _244  and  _247
REMARK  102  A    between atoms: _247  and  _248
REMARK  103  A    between atoms: _253  and  _255
REMARK  104  A    between atoms: _255  and  _256
REMARK  105  A    between atoms: _255  and  _258
REMARK  106  A    between atoms: _258  and  _259
REMARK  107  A    between atoms: _264  and  _266
REMARK  108  A    between atoms: _266  and  _267
REMARK  109  A    between atoms: _266  and  _269
REMARK  110  A    between atoms: _272  and  _274
REMARK  111  A    between atoms: _274  and  _275
REMARK  112  A    between atoms: _274  and  _277
REMARK  113  A    between atoms: _277  and  _278
REMARK  114  A    between atoms: _281  and  _283
REMARK  115  A    between atoms: _283  and  _284
REMARK  116  A    between atoms: _286  and  _288
REMARK  117  A    between atoms: _288  and  _289
REMARK  118  A    between atoms: _288  and  _291
REMARK  119  A    between atoms: _291  and  _292
REMARK  120  A    between atoms: _295  and  _297
REMARK  121  A    between atoms: _297  and  _298
REMARK  122  A    between atoms: _297  and  _300
REMARK  123  A    between atoms: _300  and  _301
REMARK  124  A    between atoms: _304  and  _306
REMARK  125  A    between atoms: _306  and  _307
REMARK  126  A    between atoms: _306  and  _309
REMARK  127  A    between atoms: _309  and  _310
REMARK  128  A    between atoms: _313  and  _315
REMARK  129  A    between atoms: _315  and  _316
REMARK  130  A    between atoms: _315  and  _318
REMARK  131  A    between atoms: _318  and  _319
REMARK  132  A    between atoms: _324  and  _325
REMARK  133  A    between atoms: _327  and  _329
REMARK  134  A    between atoms: _329  and  _330
REMARK  135  A    between atoms: _329  and  _332
REMARK  136  A    between atoms: _332  and  _333
REMARK  137  A    between atoms: _336  and  _338
REMARK  138  A    between atoms: _338  and  _339
REMARK  139  A    between atoms: _338  and  _341
REMARK  140  A    between atoms: _344  and  _346
REMARK  141  A    between atoms: _346  and  _347
REMARK  142  A    between atoms: _346  and  _349
REMARK  143  A    between atoms: _349  and  _350
REMARK  144  A    between atoms: _353  and  _355
REMARK  145  A    between atoms: _355  and  _356
REMARK  146  A    between atoms: _355  and  _358
REMARK  147  A    between atoms: _358  and  _359
REMARK  148  A    between atoms: _364  and  _366
REMARK  149  A    between atoms: _366  and  _367
REMARK  150  A    between atoms: _366  and  _369
REMARK  151  A    between atoms: _369  and  _370
REMARK  152  A    between atoms: _373  and  _375
REMARK  153  A    between atoms: _375  and  _376
REMARK  154  A    between atoms: _375  and  _378
REMARK  155  A    between atoms: _378  and  _379
REMARK  156  A    between atoms: _379  and  _380
REMARK  157  A    between atoms: _382  and  _384
REMARK  158  A    between atoms: _384  and  _385
REMARK  159  A    between atoms: _387  and  _389
REMARK  160  A    between atoms: _389  and  _390
REMARK  161  A    between atoms: _393  and  _395
REMARK  162  A    between atoms: _395  and  _396
REMARK  163  A    between atoms: _395  and  _398
REMARK  164  A    between atoms: _398  and  _399
REMARK  165  A    between atoms: _402  and  _404
REMARK  166  A    between atoms: _404  and  _405
REMARK  167  A    between atoms: _404  and  _407
REMARK  168  A    between atoms: _407  and  _408
REMARK  169  A    between atoms: _413  and  _415
REMARK  170  A    between atoms: _415  and  _416
REMARK  171  A    between atoms: _418  and  _420
REMARK  172  A    between atoms: _420  and  _421
REMARK  173  A    between atoms: _420  and  _423
REMARK  174  A    between atoms: _423  and  _424
REMARK  175  A    between atoms: _427  and  _429
REMARK  176  A    between atoms: _429  and  _430
REMARK  177  A    between atoms: _429  and  _432
REMARK  178  A    between atoms: _432  and  _433
REMARK  179  A    between atoms: _438  and  _439
REMARK  180  A    between atoms: _441  and  _443
REMARK  181  A    between atoms: _443  and  _444
REMARK  182  A    between atoms: _443  and  _446
REMARK  183  A    between atoms: _446  and  _447
REMARK  184  A    between atoms: _450  and  _452
REMARK  185  A    between atoms: _452  and  _453
REMARK  186  A    between atoms: _452  and  _455
REMARK  187  A    between atoms: _455  and  _456
REMARK  188  A    between atoms: _461  and  _463
REMARK  189  A    between atoms: _463  and  _464
REMARK  190  A    between atoms: _467  and  _469
REMARK  191  A    between atoms: _469  and  _470
REMARK  192  A    between atoms: _469  and  _472
REMARK  193  A    between atoms: _472  and  _473
REMARK  194  A    between atoms: _476  and  _478
REMARK  195  A    between atoms: _478  and  _479
REMARK  196  A    between atoms: _478  and  _481
REMARK  197  A    between atoms: _481  and  _482
REMARK  198  A    between atoms: _485  and  _487
REMARK  199  A    between atoms: _487  and  _488
REMARK  200  A    between atoms: _487  and  _490
REMARK  201  A    between atoms: _490  and  _491
REMARK  202  A    between atoms: _496  and  _498
REMARK  203  A    between atoms: _498  and  _499
REMARK  204  A    between atoms: _498  and  _501
REMARK  205  A    between atoms: _501  and  _502
REMARK  206  A    between atoms: _502  and  _503
REMARK  207  A    between atoms: _503  and  _504
REMARK  208  A    between atoms: _513  and  _515
REMARK  209  A    between atoms: _515  and  _516
REMARK  210  A    between atoms: _515  and  _518
REMARK  211  A    between atoms: _518  and  _519
REMARK  212  A    between atoms: _522  and  _524
REMARK  213  A    between atoms: _524  and  _525
REMARK  214  A    between atoms: _524  and  _527
REMARK  215  A    between atoms: _527  and  _528
REMARK  216  A    between atoms: _531  and  _533
REMARK  217  A    between atoms: _533  and  _534
REMARK  218  A    between atoms: _533  and  _536
REMARK  219  A    between atoms: _536  and  _537
REMARK  220  A    between atoms: _539  and  _541
REMARK  221  A    between atoms: _541  and  _542
REMARK  222  A    between atoms: _541  and  _544
REMARK  223  A    between atoms: _544  and  _545
REMARK  224  A    between atoms: _550  and  _552
REMARK  225  A    between atoms: _552  and  _553
REMARK  226  A    between atoms: _552  and  _555
REMARK  227  A    between atoms: _555  and  _556
REMARK  228  A    between atoms: _559  and  _561
REMARK  229  A    between atoms: _561  and  _562
REMARK  230  A    between atoms: _565  and  _567
REMARK  231  A    between atoms: _567  and  _568
REMARK  232  A    between atoms: _567  and  _570
REMARK  233  A    between atoms: _570  and  _571
REMARK  234  A    between atoms: _571  and  _572
REMARK  235  A    between atoms: _572  and  _573
REMARK  236  A    between atoms: _573  and  _574
REMARK  237  A    between atoms: _578  and  _580
REMARK  238  A    between atoms: _580  and  _581
REMARK  239  A    between atoms: _580  and  _583
REMARK  240  A    between atoms: _583  and  _584
REMARK  241  A    between atoms: _587  and  _589
REMARK  242  A    between atoms: _589  and  _590
REMARK  243  A    between atoms: _589  and  _592
REMARK  244  A    between atoms: _592  and  _593
REMARK  245  A    between atoms: _596  and  _598
REMARK  246  A    between atoms: _598  and  _599
REMARK  247  A    between atoms: _598  and  _601
REMARK  248  A    between atoms: _601  and  _602
REMARK  249  A    between atoms: _605  and  _607
REMARK  250  A    between atoms: _607  and  _608
REMARK  251  A    between atoms: _607  and  _610
REMARK  252  A    between atoms: _610  and  _611
REMARK  253  A    between atoms: _617  and  _619
REMARK  254  A    between atoms: _619  and  _620
REMARK  255  A    between atoms: _622  and  _624
REMARK  256  A    between atoms: _624  and  _625
REMARK  257  A    between atoms: _624  and  _627
REMARK  258  A    between atoms: _627  and  _628
REMARK  259  A    between atoms: _631  and  _633
REMARK  260  A    between atoms: _633  and  _634
REMARK  261  A    between atoms: _633  and  _636
REMARK  262  A    between atoms: _636  and  _637
REMARK                            x       y       z     vdW  Elec       q    Type
REMARK                         _______ _______ _______ _____ _____    ______ ____
ROOT
ATOM      1  O   HOH     1      36.936  36.602  42.284  0.00  0.00    +0.000 OA
ENDROOT
TORSDOF 0
REMARK  Name = ../refined-set-2016/3e93/3e93_pocket.pdb
REMARK  262 active torsions:
REMARK  status: ('A' for Active; 'I' for Inactive)
REMARK    1  A    between atoms: _1  and  _3
REMARK    2  A    between atoms: _3  and  _4
REMARK    3  A    between atoms: _3  and  _6
REMARK    4  A    between atoms: _6  and  _7
REMARK    5  A    between atoms: _17  and  _19
REMARK    6  A    between atoms: _19  and  _20
REMARK    7  A    between atoms: _19  and  _22
REMARK    8  A    between atoms: _22  and  _23
REMARK    9  A    between atoms: _26  and  _27
REMARK   10  A    between atoms: _32  and  _34
REMARK   11  A    between atoms: _34  and  _35
REMARK   12  A    between atoms: _34  and  _37
REMARK   13  A    between atoms: _40  and  _42
REMARK   14  A    between atoms: _42  and  _43
REMARK   15  A    between atoms: _45  and  _47
REMARK   16  A    between atoms: _47  and  _48
REMARK   17  A    between atoms: _47  and  _50
REMARK   18  A    between atoms: _50  and  _51
REMARK   19  A    between atoms: _53  and  _55
REMARK   20  A    between atoms: _55  and  _56
REMARK   21  A    between atoms: _55  and  _58
REMARK   22  A    between atoms: _58  and  _59
REMARK   23  A    between atoms: _61  and  _63
REMARK   24  A    between atoms: _63  and  _64
REMARK   25  A    between atoms: _63  and  _66
REMARK   26  A    between atoms: _69  and  _71
REMARK   27  A    between atoms: _71  and  _72
REMARK   28  A    between atoms: _71  and  _74
REMARK   29  A    between atoms: _76  and  _78
REMARK   30  A    between atoms: _78  and  _79
REMARK   31  A    between atoms: _82  and  _84
REMARK   32  A    between atoms: _84  and  _85
REMARK   33  A    between atoms: _88  and  _90
REMARK   34  A    between atoms: _90  and  _91
REMARK   35  A    between atoms: _90  and  _93
REMARK   36  A    between atoms: _93  and  _94
REMARK   37  A    between atoms: _94  and  _95
REMARK   38  A    between atoms: _95  and  _96
REMARK   39  A    between atoms: _105  and  _107
REMARK   40  A    between atoms: _107  and  _108
REMARK   41  A    between atoms: _107  and  _110
REMARK   42  A    between atoms: _113  and  _115
REMARK   43  A    between atoms: _115  and  _116
REMARK   44  A    between atoms: _119  and  _121
REMARK   45  A    between atoms: _121  and  _122
REMARK   46  A    between atoms: _121  and  _124
REMARK   47  A    between atoms: _127  and  _129
REMARK   48  A    between atoms: _129  and  _130
REMARK   49  A    between atoms: _129  and  _132
REMARK   50  A    between atoms: _132  and  _133
REMARK   51  A    between atoms: _133  and  _134
REMARK   52  A    between atoms: _134  and  _135
REMARK   53  A    between atoms: _135  and  _136
REMARK   54  A    between atoms: _140  and  _142
REMARK   55  A    between atoms: _142  and  _143
REMARK   56  A    between atoms: _142  and  _145
REMARK   57  A    between atoms: _145  and  _146
REMARK   58  A    between atoms: _146  and  _147
REMARK   59  A    between atoms: _147  and  _148
REMARK   60  A    between atoms: _148  and  _149
REMARK   61  A    between atoms: _153  and  _155
REMARK   62  A    between atoms: _155  and  _156
REMARK   63  A    between atoms: _155  and  _158
REMARK   64  A    between atoms: _158  and  _159
REMARK   65  A    between atoms: _162  and  _164
REMARK   66  A    between atoms: _164  and  _165
REMARK   67  A    between atoms: _164  and  _167
REMARK   68  A    between atoms: _167  and  _168
REMARK   69  A    between atoms: _168  and  _169
REMARK   70  A    between atoms: _169  and  _170
REMARK   71  A    between atoms: _179  and  _181
REMARK   72  A    between atoms: _181  and  _182
REMARK   73  A    between atoms: _181  and  _184
REMARK   74  A    between atoms: _184  and  _185
REMARK   75  A    between atoms: _185  and  _186
REMARK   76  A    between atoms: _186  and  _187
REMARK   77  A    between atoms: _196  and  _198
REMARK   78  A    between atoms: _198  and  _199
REMARK   79  A    between atoms: _198  and  _201
REMARK   80  A    between atoms: _201  and  _202
REMARK   81  A    between atoms: _202  and  _203
REMARK   82  A    between atoms: _206  and  _208
REMARK   83  A    between atoms: _208  and  _209
REMARK   84  A    between atoms: _208  and  _211
REMARK   85  A    between atoms: _211  and  _212
REMARK   86  A    between atoms: _215  and  _217
REMARK   87  A    between atoms: _217  and  _218
REMARK   88  A    between atoms: _217  and  _220
REMARK   89  A    between atoms: _220  and  _221
REMARK   90  A    between atoms: _224  and  _226
REMARK   91  A    between atoms: _226  and  _227
REMARK   92  A    between atoms: _226  and  _229
REMARK   93  A    between atoms: _229  and  _230
REMARK   94  A    between atoms: _233  and  _235
REMARK   95  A    between atoms: _235  and  _236
REMARK   96  A    between atoms: _235  and  _238
REMARK   97  A    between atoms: _238  and  _239
REMARK   98  A    between atoms: _239  and  _240
REMARK   99  A    between atoms: _242  and  _244
REMARK  100  A    between atoms: _244  and  _245
REMARK  101  A    between atoms: _244  and  _247
REMARK  102  A    between atoms: _247  and  _248
REMARK  103  A    between atoms: _253  and  _255
REMARK  104  A    between atoms: _255  and  _256
REMARK  105  A    between atoms: _255  and  _258
REMARK  106  A    between atoms: _258  and  _259
REMARK  107  A    between atoms: _264  and  _266
REMARK  108  A    between atoms: _266  and  _267
REMARK  109  A    between atoms: _266  and  _269
REMARK  110  A    between atoms: _272  and  _274
REMARK  111  A    between atoms: _274  and  _275
REMARK  112  A    between atoms: _274  and  _277
REMARK  113  A    between atoms: _277  and  _278
REMARK  114  A    between atoms: _281  and  _283
REMARK  115  A    between atoms: _283  and  _284
REMARK  116  A    between atoms: _286  and  _288
REMARK  117  A    between atoms: _288  and  _289
REMARK  118  A    between atoms: _288  and  _291
REMARK  119  A    between atoms: _291  and  _292
REMARK  120  A    between atoms: _295  and  _297
REMARK  121  A    between atoms: _297  and  _298
REMARK  122  A    between atoms: _297  and  _300
REMARK  123  A    between atoms: _300  and  _301
REMARK  124  A    between atoms: _304  and  _306
REMARK  125  A    between atoms: _306  and  _307
REMARK  126  A    between atoms: _306  and  _309
REMARK  127  A    between atoms: _309  and  _310
REMARK  128  A    between atoms: _313  and  _315
REMARK  129  A    between atoms: _315  and  _316
REMARK  130  A    between atoms: _315  and  _318
REMARK  131  A    between atoms: _318  and  _319
REMARK  132  A    between atoms: _324  and  _325
REMARK  133  A    between atoms: _327  and  _329
REMARK  134  A    between atoms: _329  and  _330
REMARK  135  A    between atoms: _329  and  _332
REMARK  136  A    between atoms: _332  and  _333
REMARK  137  A    between atoms: _336  and  _338
REMARK  138  A    between atoms: _338  and  _339
REMARK  139  A    between atoms: _338  and  _341
REMARK  140  A    between atoms: _344  and  _346
REMARK  141  A    between atoms: _346  and  _347
REMARK  142  A    between atoms: _346  and  _349
REMARK  143  A    between atoms: _349  and  _350
REMARK  144  A    between atoms: _353  and  _355
REMARK  145  A    between atoms: _355  and  _356
REMARK  146  A    between atoms: _355  and  _358
REMARK  147  A    between atoms: _358  and  _359
REMARK  148  A    between atoms: _364  and  _366
REMARK  149  A    between atoms: _366  and  _367
REMARK  150  A    between atoms: _366  and  _369
REMARK  151  A    between atoms: _369  and  _370
REMARK  152  A    between atoms: _373  and  _375
REMARK  153  A    between atoms: _375  and  _376
REMARK  154  A    between atoms: _375  and  _378
REMARK  155  A    between atoms: _378  and  _379
REMARK  156  A    between atoms: _379  and  _380
REMARK  157  A    between atoms: _382  and  _384
REMARK  158  A    between atoms: _384  and  _385
REMARK  159  A    between atoms: _387  and  _389
REMARK  160  A    between atoms: _389  and  _390
REMARK  161  A    between atoms: _393  and  _395
REMARK  162  A    between atoms: _395  and  _396
REMARK  163  A    between atoms: _395  and  _398
REMARK  164  A    between atoms: _398  and  _399
REMARK  165  A    between atoms: _402  and  _404
REMARK  166  A    between atoms: _404  and  _405
REMARK  167  A    between atoms: _404  and  _407
REMARK  168  A    between atoms: _407  and  _408
REMARK  169  A    between atoms: _413  and  _415
REMARK  170  A    between atoms: _415  and  _416
REMARK  171  A    between atoms: _418  and  _420
REMARK  172  A    between atoms: _420  and  _421
REMARK  173  A    between atoms: _420  and  _423
REMARK  174  A    between atoms: _423  and  _424
REMARK  175  A    between atoms: _427  and  _429
REMARK  176  A    between atoms: _429  and  _430
REMARK  177  A    between atoms: _429  and  _432
REMARK  178  A    between atoms: _432  and  _433
REMARK  179  A    between atoms: _438  and  _439
REMARK  180  A    between atoms: _441  and  _443
REMARK  181  A    between atoms: _443  and  _444
REMARK  182  A    between atoms: _443  and  _446
REMARK  183  A    between atoms: _446  and  _447
REMARK  184  A    between atoms: _450  and  _452
REMARK  185  A    between atoms: _452  and  _453
REMARK  186  A    between atoms: _452  and  _455
REMARK  187  A    between atoms: _455  and  _456
REMARK  188  A    between atoms: _461  and  _463
REMARK  189  A    between atoms: _463  and  _464
REMARK  190  A    between atoms: _467  and  _469
REMARK  191  A    between atoms: _469  and  _470
REMARK  192  A    between atoms: _469  and  _472
REMARK  193  A    between atoms: _472  and  _473
REMARK  194  A    between atoms: _476  and  _478
REMARK  195  A    between atoms: _478  and  _479
REMARK  196  A    between atoms: _478  and  _481
REMARK  197  A    between atoms: _481  and  _482
REMARK  198  A    between atoms: _485  and  _487
REMARK  199  A    between atoms: _487  and  _488
REMARK  200  A    between atoms: _487  and  _490
REMARK  201  A    between atoms: _490  and  _491
REMARK  202  A    between atoms: _496  and  _498
REMARK  203  A    between atoms: _498  and  _499
REMARK  204  A    between atoms: _498  and  _501
REMARK  205  A    between atoms: _501  and  _502
REMARK  206  A    between atoms: _502  and  _503
REMARK  207  A    between atoms: _503  and  _504
REMARK  208  A    between atoms: _513  and  _515
REMARK  209  A    between atoms: _515  and  _516
REMARK  210  A    between atoms: _515  and  _518
REMARK  211  A    between atoms: _518  and  _519
REMARK  212  A    between atoms: _522  and  _524
REMARK  213  A    between atoms: _524  and  _525
REMARK  214  A    between atoms: _524  and  _527
REMARK  215  A    between atoms: _527  and  _528
REMARK  216  A    between atoms: _531  and  _533
REMARK  217  A    between atoms: _533  and  _534
REMARK  218  A    between atoms: _533  and  _536
REMARK  219  A    between atoms: _536  and  _537
REMARK  220  A    between atoms: _539  and  _541
REMARK  221  A    between atoms: _541  and  _542
REMARK  222  A    between atoms: _541  and  _544
REMARK  223  A    between atoms: _544  and  _545
REMARK  224  A    between atoms: _550  and  _552
REMARK  225  A    between atoms: _552  and  _553
REMARK  226  A    between atoms: _552  and  _555
REMARK  227  A    between atoms: _555  and  _556
REMARK  228  A    between atoms: _559  and  _561
REMARK  229  A    between atoms: _561  and  _562
REMARK  230  A    between atoms: _565  and  _567
REMARK  231  A    between atoms: _567  and  _568
REMARK  232  A    between atoms: _567  and  _570
REMARK  233  A    between atoms: _570  and  _571
REMARK  234  A    between atoms: _571  and  _572
REMARK  235  A    between atoms: _572  and  _573
REMARK  236  A    between atoms: _573  and  _574
REMARK  237  A    between atoms: _578  and  _580
REMARK  238  A    between atoms: _580  and  _581
REMARK  239  A    between atoms: _580  and  _583
REMARK  240  A    between atoms: _583  and  _584
REMARK  241  A    between atoms: _587  and  _589
REMARK  242  A    between atoms: _589  and  _590
REMARK  243  A    between atoms: _589  and  _592
REMARK  244  A    between atoms: _592  and  _593
REMARK  245  A    between atoms: _596  and  _598
REMARK  246  A    between atoms: _598  and  _599
REMARK  247  A    between atoms: _598  and  _601
REMARK  248  A    between atoms: _601  and  _602
REMARK  249  A    between atoms: _605  and  _607
REMARK  250  A    between atoms: _607  and  _608
REMARK  251  A    between atoms: _607  and  _610
REMARK  252  A    between atoms: _610  and  _611
REMARK  253  A    between atoms: _617  and  _619
REMARK  254  A    between atoms: _619  and  _620
REMARK  255  A    between atoms: _622  and  _624
REMARK  256  A    between atoms: _624  and  _625
REMARK  257  A    between atoms: _624  and  _627
REMARK  258  A    between atoms: _627  and  _628
REMARK  259  A    between atoms: _631  and  _633
REMARK  260  A    between atoms: _633  and  _634
REMARK  261  A    between atoms: _633  and  _636
REMARK  262  A    between atoms: _636  and  _637
REMARK                            x       y       z     vdW  Elec       q    Type
REMARK                         _______ _______ _______ _____ _____    ______ ____
ROOT
ATOM      1  O   HOH     1      38.109  38.516  36.264  0.00  0.00    +0.000 OA
ENDROOT
TORSDOF 0
REMARK  Name = ../refined-set-2016/3e93/3e93_pocket.pdb
REMARK  262 active torsions:
REMARK  status: ('A' for Active; 'I' for Inactive)
REMARK    1  A    between atoms: _1  and  _3
REMARK    2  A    between atoms: _3  and  _4
REMARK    3  A    between atoms: _3  and  _6
REMARK    4  A    between atoms: _6  and  _7
REMARK    5  A    between atoms: _17  and  _19
REMARK    6  A    between atoms: _19  and  _20
REMARK    7  A    between atoms: _19  and  _22
REMARK    8  A    between atoms: _22  and  _23
REMARK    9  A    between atoms: _26  and  _27
REMARK   10  A    between atoms: _32  and  _34
REMARK   11  A    between atoms: _34  and  _35
REMARK   12  A    between atoms: _34  and  _37
REMARK   13  A    between atoms: _40  and  _42
REMARK   14  A    between atoms: _42  and  _43
REMARK   15  A    between atoms: _45  and  _47
REMARK   16  A    between atoms: _47  and  _48
REMARK   17  A    between atoms: _47  and  _50
REMARK   18  A    between atoms: _50  and  _51
REMARK   19  A    between atoms: _53  and  _55
REMARK   20  A    between atoms: _55  and  _56
REMARK   21  A    between atoms: _55  and  _58
REMARK   22  A    between atoms: _58  and  _59
REMARK   23  A    between atoms: _61  and  _63
REMARK   24  A    between atoms: _63  and  _64
REMARK   25  A    between atoms: _63  and  _66
REMARK   26  A    between atoms: _69  and  _71
REMARK   27  A    between atoms: _71  and  _72
REMARK   28  A    between atoms: _71  and  _74
REMARK   29  A    between atoms: _76  and  _78
REMARK   30  A    between atoms: _78  and  _79
REMARK   31  A    between atoms: _82  and  _84
REMARK   32  A    between atoms: _84  and  _85
REMARK   33  A    between atoms: _88  and  _90
REMARK   34  A    between atoms: _90  and  _91
REMARK   35  A    between atoms: _90  and  _93
REMARK   36  A    between atoms: _93  and  _94
REMARK   37  A    between atoms: _94  and  _95
REMARK   38  A    between atoms: _95  and  _96
REMARK   39  A    between atoms: _105  and  _107
REMARK   40  A    between atoms: _107  and  _108
REMARK   41  A    between atoms: _107  and  _110
REMARK   42  A    between atoms: _113  and  _115
REMARK   43  A    between atoms: _115  and  _116
REMARK   44  A    between atoms: _119  and  _121
REMARK   45  A    between atoms: _121  and  _122
REMARK   46  A    between atoms: _121  and  _124
REMARK   47  A    between atoms: _127  and  _129
REMARK   48  A    between atoms: _129  and  _130
REMARK   49  A    between atoms: _129  and  _132
REMARK   50  A    between atoms: _132  and  _133
REMARK   51  A    between atoms: _133  and  _134
REMARK   52  A    between atoms: _134  and  _135
REMARK   53  A    between atoms: _135  and  _136
REMARK   54  A    between atoms: _140  and  _142
REMARK   55  A    between atoms: _142  and  _143
REMARK   56  A    between atoms: _142  and  _145
REMARK   57  A    between atoms: _145  and  _146
REMARK   58  A    between atoms: _146  and  _147
REMARK   59  A    between atoms: _147  and  _148
REMARK   60  A    between atoms: _148  and  _149
REMARK   61  A    between atoms: _153  and  _155
REMARK   62  A    between atoms: _155  and  _156
REMARK   63  A    between atoms: _155  and  _158
REMARK   64  A    between atoms: _158  and  _159
REMARK   65  A    between atoms: _162  and  _164
REMARK   66  A    between atoms: _164  and  _165
REMARK   67  A    between atoms: _164  and  _167
REMARK   68  A    between atoms: _167  and  _168
REMARK   69  A    between atoms: _168  and  _169
REMARK   70  A    between atoms: _169  and  _170
REMARK   71  A    between atoms: _179  and  _181
REMARK   72  A    between atoms: _181  and  _182
REMARK   73  A    between atoms: _181  and  _184
REMARK   74  A    between atoms: _184  and  _185
REMARK   75  A    between atoms: _185  and  _186
REMARK   76  A    between atoms: _186  and  _187
REMARK   77  A    between atoms: _196  and  _198
REMARK   78  A    between atoms: _198  and  _199
REMARK   79  A    between atoms: _198  and  _201
REMARK   80  A    between atoms: _201  and  _202
REMARK   81  A    between atoms: _202  and  _203
REMARK   82  A    between atoms: _206  and  _208
REMARK   83  A    between atoms: _208  and  _209
REMARK   84  A    between atoms: _208  and  _211
REMARK   85  A    between atoms: _211  and  _212
REMARK   86  A    between atoms: _215  and  _217
REMARK   87  A    between atoms: _217  and  _218
REMARK   88  A    between atoms: _217  and  _220
REMARK   89  A    between atoms: _220  and  _221
REMARK   90  A    between atoms: _224  and  _226
REMARK   91  A    between atoms: _226  and  _227
REMARK   92  A    between atoms: _226  and  _229
REMARK   93  A    between atoms: _229  and  _230
REMARK   94  A    between atoms: _233  and  _235
REMARK   95  A    between atoms: _235  and  _236
REMARK   96  A    between atoms: _235  and  _238
REMARK   97  A    between atoms: _238  and  _239
REMARK   98  A    between atoms: _239  and  _240
REMARK   99  A    between atoms: _242  and  _244
REMARK  100  A    between atoms: _244  and  _245
REMARK  101  A    between atoms: _244  and  _247
REMARK  102  A    between atoms: _247  and  _248
REMARK  103  A    between atoms: _253  and  _255
REMARK  104  A    between atoms: _255  and  _256
REMARK  105  A    between atoms: _255  and  _258
REMARK  106  A    between atoms: _258  and  _259
REMARK  107  A    between atoms: _264  and  _266
REMARK  108  A    between atoms: _266  and  _267
REMARK  109  A    between atoms: _266  and  _269
REMARK  110  A    between atoms: _272  and  _274
REMARK  111  A    between atoms: _274  and  _275
REMARK  112  A    between atoms: _274  and  _277
REMARK  113  A    between atoms: _277  and  _278
REMARK  114  A    between atoms: _281  and  _283
REMARK  115  A    between atoms: _283  and  _284
REMARK  116  A    between atoms: _286  and  _288
REMARK  117  A    between atoms: _288  and  _289
REMARK  118  A    between atoms: _288  and  _291
REMARK  119  A    between atoms: _291  and  _292
REMARK  120  A    between atoms: _295  and  _297
REMARK  121  A    between atoms: _297  and  _298
REMARK  122  A    between atoms: _297  and  _300
REMARK  123  A    between atoms: _300  and  _301
REMARK  124  A    between atoms: _304  and  _306
REMARK  125  A    between atoms: _306  and  _307
REMARK  126  A    between atoms: _306  and  _309
REMARK  127  A    between atoms: _309  and  _310
REMARK  128  A    between atoms: _313  and  _315
REMARK  129  A    between atoms: _315  and  _316
REMARK  130  A    between atoms: _315  and  _318
REMARK  131  A    between atoms: _318  and  _319
REMARK  132  A    between atoms: _324  and  _325
REMARK  133  A    between atoms: _327  and  _329
REMARK  134  A    between atoms: _329  and  _330
REMARK  135  A    between atoms: _329  and  _332
REMARK  136  A    between atoms: _332  and  _333
REMARK  137  A    between atoms: _336  and  _338
REMARK  138  A    between atoms: _338  and  _339
REMARK  139  A    between atoms: _338  and  _341
REMARK  140  A    between atoms: _344  and  _346
REMARK  141  A    between atoms: _346  and  _347
REMARK  142  A    between atoms: _346  and  _349
REMARK  143  A    between atoms: _349  and  _350
REMARK  144  A    between atoms: _353  and  _355
REMARK  145  A    between atoms: _355  and  _356
REMARK  146  A    between atoms: _355  and  _358
REMARK  147  A    between atoms: _358  and  _359
REMARK  148  A    between atoms: _364  and  _366
REMARK  149  A    between atoms: _366  and  _367
REMARK  150  A    between atoms: _366  and  _369
REMARK  151  A    between atoms: _369  and  _370
REMARK  152  A    between atoms: _373  and  _375
REMARK  153  A    between atoms: _375  and  _376
REMARK  154  A    between atoms: _375  and  _378
REMARK  155  A    between atoms: _378  and  _379
REMARK  156  A    between atoms: _379  and  _380
REMARK  157  A    between atoms: _382  and  _384
REMARK  158  A    between atoms: _384  and  _385
REMARK  159  A    between atoms: _387  and  _389
REMARK  160  A    between atoms: _389  and  _390
REMARK  161  A    between atoms: _393  and  _395
REMARK  162  A    between atoms: _395  and  _396
REMARK  163  A    between atoms: _395  and  _398
REMARK  164  A    between atoms: _398  and  _399
REMARK  165  A    between atoms: _402  and  _404
REMARK  166  A    between atoms: _404  and  _405
REMARK  167  A    between atoms: _404  and  _407
REMARK  168  A    between atoms: _407  and  _408
REMARK  169  A    between atoms: _413  and  _415
REMARK  170  A    between atoms: _415  and  _416
REMARK  171  A    between atoms: _418  and  _420
REMARK  172  A    between atoms: _420  and  _421
REMARK  173  A    between atoms: _420  and  _423
REMARK  174  A    between atoms: _423  and  _424
REMARK  175  A    between atoms: _427  and  _429
REMARK  176  A    between atoms: _429  and  _430
REMARK  177  A    between atoms: _429  and  _432
REMARK  178  A    between atoms: _432  and  _433
REMARK  179  A    between atoms: _438  and  _439
REMARK  180  A    between atoms: _441  and  _443
REMARK  181  A    between atoms: _443  and  _444
REMARK  182  A    between atoms: _443  and  _446
REMARK  183  A    between atoms: _446  and  _447
REMARK  184  A    between atoms: _450  and  _452
REMARK  185  A    between atoms: _452  and  _453
REMARK  186  A    between atoms: _452  and  _455
REMARK  187  A    between atoms: _455  and  _456
REMARK  188  A    between atoms: _461  and  _463
REMARK  189  A    between atoms: _463  and  _464
REMARK  190  A    between atoms: _467  and  _469
REMARK  191  A    between atoms: _469  and  _470
REMARK  192  A    between atoms: _469  and  _472
REMARK  193  A    between atoms: _472  and  _473
REMARK  194  A    between atoms: _476  and  _478
REMARK  195  A    between atoms: _478  and  _479
REMARK  196  A    between atoms: _478  and  _481
REMARK  197  A    between atoms: _481  and  _482
REMARK  198  A    between atoms: _485  and  _487
REMARK  199  A    between atoms: _487  and  _488
REMARK  200  A    between atoms: _487  and  _490
REMARK  201  A    between atoms: _490  and  _491
REMARK  202  A    between atoms: _496  and  _498
REMARK  203  A    between atoms: _498  and  _499
REMARK  204  A    between atoms: _498  and  _501
REMARK  205  A    between atoms: _501  and  _502
REMARK  206  A    between atoms: _502  and  _503
REMARK  207  A    between atoms: _503  and  _504
REMARK  208  A    between atoms: _513  and  _515
REMARK  209  A    between atoms: _515  and  _516
REMARK  210  A    between atoms: _515  and  _518
REMARK  211  A    between atoms: _518  and  _519
REMARK  212  A    between atoms: _522  and  _524
REMARK  213  A    between atoms: _524  and  _525
REMARK  214  A    between atoms: _524  and  _527
REMARK  215  A    between atoms: _527  and  _528
REMARK  216  A    between atoms: _531  and  _533
REMARK  217  A    between atoms: _533  and  _534
REMARK  218  A    between atoms: _533  and  _536
REMARK  219  A    between atoms: _536  and  _537
REMARK  220  A    between atoms: _539  and  _541
REMARK  221  A    between atoms: _541  and  _542
REMARK  222  A    between atoms: _541  and  _544
REMARK  223  A    between atoms: _544  and  _545
REMARK  224  A    between atoms: _550  and  _552
REMARK  225  A    between atoms: _552  and  _553
REMARK  226  A    between atoms: _552  and  _555
REMARK  227  A    between atoms: _555  and  _556
REMARK  228  A    between atoms: _559  and  _561
REMARK  229  A    between atoms: _561  and  _562
REMARK  230  A    between atoms: _565  and  _567
REMARK  231  A    between atoms: _567  and  _568
REMARK  232  A    between atoms: _567  and  _570
REMARK  233  A    between atoms: _570  and  _571
REMARK  234  A    between atoms: _571  and  _572
REMARK  235  A    between atoms: _572  and  _573
REMARK  236  A    between atoms: _573  and  _574
REMARK  237  A    between atoms: _578  and  _580
REMARK  238  A    between atoms: _580  and  _581
REMARK  239  A    between atoms: _580  and  _583
REMARK  240  A    between atoms: _583  and  _584
REMARK  241  A    between atoms: _587  and  _589
REMARK  242  A    between atoms: _589  and  _590
REMARK  243  A    between atoms: _589  and  _592
REMARK  244  A    between atoms: _592  and  _593
REMARK  245  A    between atoms: _596  and  _598
REMARK  246  A    between atoms: _598  and  _599
REMARK  247  A    between atoms: _598  and  _601
REMARK  248  A    between atoms: _601  and  _602
REMARK  249  A    between atoms: _605  and  _607
REMARK  250  A    between atoms: _607  and  _608
REMARK  251  A    between atoms: _607  and  _610
REMARK  252  A    between atoms: _610  and  _611
REMARK  253  A    between atoms: _617  and  _619
REMARK  254  A    between atoms: _619  and  _620
REMARK  255  A    between atoms: _622  and  _624
REMARK  256  A    between atoms: _624  and  _625
REMARK  257  A    between atoms: _624  and  _627
REMARK  258  A    between atoms: _627  and  _628
REMARK  259  A    between atoms: _631  and  _633
REMARK  260  A    between atoms: _633  and  _634
REMARK  261  A    between atoms: _633  and  _636
REMARK  262  A    between atoms: _636  and  _637
REMARK                            x       y       z     vdW  Elec       q    Type
REMARK                         _______ _______ _______ _____ _____    ______ ____
ROOT
ATOM      1  O   HOH     1      35.201  21.750  42.409  0.00  0.00    +0.000 OA
ENDROOT
TORSDOF 0
REMARK  Name = ../refined-set-2016/3e93/3e93_pocket.pdb
REMARK  262 active torsions:
REMARK  status: ('A' for Active; 'I' for Inactive)
REMARK    1  A    between atoms: _1  and  _3
REMARK    2  A    between atoms: _3  and  _4
REMARK    3  A    between atoms: _3  and  _6
REMARK    4  A    between atoms: _6  and  _7
REMARK    5  A    between atoms: _17  and  _19
REMARK    6  A    between atoms: _19  and  _20
REMARK    7  A    between atoms: _19  and  _22
REMARK    8  A    between atoms: _22  and  _23
REMARK    9  A    between atoms: _26  and  _27
REMARK   10  A    between atoms: _32  and  _34
REMARK   11  A    between atoms: _34  and  _35
REMARK   12  A    between atoms: _34  and  _37
REMARK   13  A    between atoms: _40  and  _42
REMARK   14  A    between atoms: _42  and  _43
REMARK   15  A    between atoms: _45  and  _47
REMARK   16  A    between atoms: _47  and  _48
REMARK   17  A    between atoms: _47  and  _50
REMARK   18  A    between atoms: _50  and  _51
REMARK   19  A    between atoms: _53  and  _55
REMARK   20  A    between atoms: _55  and  _56
REMARK   21  A    between atoms: _55  and  _58
REMARK   22  A    between atoms: _58  and  _59
REMARK   23  A    between atoms: _61  and  _63
REMARK   24  A    between atoms: _63  and  _64
REMARK   25  A    between atoms: _63  and  _66
REMARK   26  A    between atoms: _69  and  _71
REMARK   27  A    between atoms: _71  and  _72
REMARK   28  A    between atoms: _71  and  _74
REMARK   29  A    between atoms: _76  and  _78
REMARK   30  A    between atoms: _78  and  _79
REMARK   31  A    between atoms: _82  and  _84
REMARK   32  A    between atoms: _84  and  _85
REMARK   33  A    between atoms: _88  and  _90
REMARK   34  A    between atoms: _90  and  _91
REMARK   35  A    between atoms: _90  and  _93
REMARK   36  A    between atoms: _93  and  _94
REMARK   37  A    between atoms: _94  and  _95
REMARK   38  A    between atoms: _95  and  _96
REMARK   39  A    between atoms: _105  and  _107
REMARK   40  A    between atoms: _107  and  _108
REMARK   41  A    between atoms: _107  and  _110
REMARK   42  A    between atoms: _113  and  _115
REMARK   43  A    between atoms: _115  and  _116
REMARK   44  A    between atoms: _119  and  _121
REMARK   45  A    between atoms: _121  and  _122
REMARK   46  A    between atoms: _121  and  _124
REMARK   47  A    between atoms: _127  and  _129
REMARK   48  A    between atoms: _129  and  _130
REMARK   49  A    between atoms: _129  and  _132
REMARK   50  A    between atoms: _132  and  _133
REMARK   51  A    between atoms: _133  and  _134
REMARK   52  A    between atoms: _134  and  _135
REMARK   53  A    between atoms: _135  and  _136
REMARK   54  A    between atoms: _140  and  _142
REMARK   55  A    between atoms: _142  and  _143
REMARK   56  A    between atoms: _142  and  _145
REMARK   57  A    between atoms: _145  and  _146
REMARK   58  A    between atoms: _146  and  _147
REMARK   59  A    between atoms: _147  and  _148
REMARK   60  A    between atoms: _148  and  _149
REMARK   61  A    between atoms: _153  and  _155
REMARK   62  A    between atoms: _155  and  _156
REMARK   63  A    between atoms: _155  and  _158
REMARK   64  A    between atoms: _158  and  _159
REMARK   65  A    between atoms: _162  and  _164
REMARK   66  A    between atoms: _164  and  _165
REMARK   67  A    between atoms: _164  and  _167
REMARK   68  A    between atoms: _167  and  _168
REMARK   69  A    between atoms: _168  and  _169
REMARK   70  A    between atoms: _169  and  _170
REMARK   71  A    between atoms: _179  and  _181
REMARK   72  A    between atoms: _181  and  _182
REMARK   73  A    between atoms: _181  and  _184
REMARK   74  A    between atoms: _184  and  _185
REMARK   75  A    between atoms: _185  and  _186
REMARK   76  A    between atoms: _186  and  _187
REMARK   77  A    between atoms: _196  and  _198
REMARK   78  A    between atoms: _198  and  _199
REMARK   79  A    between atoms: _198  and  _201
REMARK   80  A    between atoms: _201  and  _202
REMARK   81  A    between atoms: _202  and  _203
REMARK   82  A    between atoms: _206  and  _208
REMARK   83  A    between atoms: _208  and  _209
REMARK   84  A    between atoms: _208  and  _211
REMARK   85  A    between atoms: _211  and  _212
REMARK   86  A    between atoms: _215  and  _217
REMARK   87  A    between atoms: _217  and  _218
REMARK   88  A    between atoms: _217  and  _220
REMARK   89  A    between atoms: _220  and  _221
REMARK   90  A    between atoms: _224  and  _226
REMARK   91  A    between atoms: _226  and  _227
REMARK   92  A    between atoms: _226  and  _229
REMARK   93  A    between atoms: _229  and  _230
REMARK   94  A    between atoms: _233  and  _235
REMARK   95  A    between atoms: _235  and  _236
REMARK   96  A    between atoms: _235  and  _238
REMARK   97  A    between atoms: _238  and  _239
REMARK   98  A    between atoms: _239  and  _240
REMARK   99  A    between atoms: _242  and  _244
REMARK  100  A    between atoms: _244  and  _245
REMARK  101  A    between atoms: _244  and  _247
REMARK  102  A    between atoms: _247  and  _248
REMARK  103  A    between atoms: _253  and  _255
REMARK  104  A    between atoms: _255  and  _256
REMARK  105  A    between atoms: _255  and  _258
REMARK  106  A    between atoms: _258  and  _259
REMARK  107  A    between atoms: _264  and  _266
REMARK  108  A    between atoms: _266  and  _267
REMARK  109  A    between atoms: _266  and  _269
REMARK  110  A    between atoms: _272  and  _274
REMARK  111  A    between atoms: _274  and  _275
REMARK  112  A    between atoms: _274  and  _277
REMARK  113  A    between atoms: _277  and  _278
REMARK  114  A    between atoms: _281  and  _283
REMARK  115  A    between atoms: _283  and  _284
REMARK  116  A    between atoms: _286  and  _288
REMARK  117  A    between atoms: _288  and  _289
REMARK  118  A    between atoms: _288  and  _291
REMARK  119  A    between atoms: _291  and  _292
REMARK  120  A    between atoms: _295  and  _297
REMARK  121  A    between atoms: _297  and  _298
REMARK  122  A    between atoms: _297  and  _300
REMARK  123  A    between atoms: _300  and  _301
REMARK  124  A    between atoms: _304  and  _306
REMARK  125  A    between atoms: _306  and  _307
REMARK  126  A    between atoms: _306  and  _309
REMARK  127  A    between atoms: _309  and  _310
REMARK  128  A    between atoms: _313  and  _315
REMARK  129  A    between atoms: _315  and  _316
REMARK  130  A    between atoms: _315  and  _318
REMARK  131  A    between atoms: _318  and  _319
REMARK  132  A    between atoms: _324  and  _325
REMARK  133  A    between atoms: _327  and  _329
REMARK  134  A    between atoms: _329  and  _330
REMARK  135  A    between atoms: _329  and  _332
REMARK  136  A    between atoms: _332  and  _333
REMARK  137  A    between atoms: _336  and  _338
REMARK  138  A    between atoms: _338  and  _339
REMARK  139  A    between atoms: _338  and  _341
REMARK  140  A    between atoms: _344  and  _346
REMARK  141  A    between atoms: _346  and  _347
REMARK  142  A    between atoms: _346  and  _349
REMARK  143  A    between atoms: _349  and  _350
REMARK  144  A    between atoms: _353  and  _355
REMARK  145  A    between atoms: _355  and  _356
REMARK  146  A    between atoms: _355  and  _358
REMARK  147  A    between atoms: _358  and  _359
REMARK  148  A    between atoms: _364  and  _366
REMARK  149  A    between atoms: _366  and  _367
REMARK  150  A    between atoms: _366  and  _369
REMARK  151  A    between atoms: _369  and  _370
REMARK  152  A    between atoms: _373  and  _375
REMARK  153  A    between atoms: _375  and  _376
REMARK  154  A    between atoms: _375  and  _378
REMARK  155  A    between atoms: _378  and  _379
REMARK  156  A    between atoms: _379  and  _380
REMARK  157  A    between atoms: _382  and  _384
REMARK  158  A    between atoms: _384  and  _385
REMARK  159  A    between atoms: _387  and  _389
REMARK  160  A    between atoms: _389  and  _390
REMARK  161  A    between atoms: _393  and  _395
REMARK  162  A    between atoms: _395  and  _396
REMARK  163  A    between atoms: _395  and  _398
REMARK  164  A    between atoms: _398  and  _399
REMARK  165  A    between atoms: _402  and  _404
REMARK  166  A    between atoms: _404  and  _405
REMARK  167  A    between atoms: _404  and  _407
REMARK  168  A    between atoms: _407  and  _408
REMARK  169  A    between atoms: _413  and  _415
REMARK  170  A    between atoms: _415  and  _416
REMARK  171  A    between atoms: _418  and  _420
REMARK  172  A    between atoms: _420  and  _421
REMARK  173  A    between atoms: _420  and  _423
REMARK  174  A    between atoms: _423  and  _424
REMARK  175  A    between atoms: _427  and  _429
REMARK  176  A    between atoms: _429  and  _430
REMARK  177  A    between atoms: _429  and  _432
REMARK  178  A    between atoms: _432  and  _433
REMARK  179  A    between atoms: _438  and  _439
REMARK  180  A    between atoms: _441  and  _443
REMARK  181  A    between atoms: _443  and  _444
REMARK  182  A    between atoms: _443  and  _446
REMARK  183  A    between atoms: _446  and  _447
REMARK  184  A    between atoms: _450  and  _452
REMARK  185  A    between atoms: _452  and  _453
REMARK  186  A    between atoms: _452  and  _455
REMARK  187  A    between atoms: _455  and  _456
REMARK  188  A    between atoms: _461  and  _463
REMARK  189  A    between atoms: _463  and  _464
REMARK  190  A    between atoms: _467  and  _469
REMARK  191  A    between atoms: _469  and  _470
REMARK  192  A    between atoms: _469  and  _472
REMARK  193  A    between atoms: _472  and  _473
REMARK  194  A    between atoms: _476  and  _478
REMARK  195  A    between atoms: _478  and  _479
REMARK  196  A    between atoms: _478  and  _481
REMARK  197  A    between atoms: _481  and  _482
REMARK  198  A    between atoms: _485  and  _487
REMARK  199  A    between atoms: _487  and  _488
REMARK  200  A    between atoms: _487  and  _490
REMARK  201  A    between atoms: _490  and  _491
REMARK  202  A    between atoms: _496  and  _498
REMARK  203  A    between atoms: _498  and  _499
REMARK  204  A    between atoms: _498  and  _501
REMARK  205  A    between atoms: _501  and  _502
REMARK  206  A    between atoms: _502  and  _503
REMARK  207  A    between atoms: _503  and  _504
REMARK  208  A    between atoms: _513  and  _515
REMARK  209  A    between atoms: _515  and  _516
REMARK  210  A    between atoms: _515  and  _518
REMARK  211  A    between atoms: _518  and  _519
REMARK  212  A    between atoms: _522  and  _524
REMARK  213  A    between atoms: _524  and  _525
REMARK  214  A    between atoms: _524  and  _527
REMARK  215  A    between atoms: _527  and  _528
REMARK  216  A    between atoms: _531  and  _533
REMARK  217  A    between atoms: _533  and  _534
REMARK  218  A    between atoms: _533  and  _536
REMARK  219  A    between atoms: _536  and  _537
REMARK  220  A    between atoms: _539  and  _541
REMARK  221  A    between atoms: _541  and  _542
REMARK  222  A    between atoms: _541  and  _544
REMARK  223  A    between atoms: _544  and  _545
REMARK  224  A    between atoms: _550  and  _552
REMARK  225  A    between atoms: _552  and  _553
REMARK  226  A    between atoms: _552  and  _555
REMARK  227  A    between atoms: _555  and  _556
REMARK  228  A    between atoms: _559  and  _561
REMARK  229  A    between atoms: _561  and  _562
REMARK  230  A    between atoms: _565  and  _567
REMARK  231  A    between atoms: _567  and  _568
REMARK  232  A    between atoms: _567  and  _570
REMARK  233  A    between atoms: _570  and  _571
REMARK  234  A    between atoms: _571  and  _572
REMARK  235  A    between atoms: _572  and  _573
REMARK  236  A    between atoms: _573  and  _574
REMARK  237  A    between atoms: _578  and  _580
REMARK  238  A    between atoms: _580  and  _581
REMARK  239  A    between atoms: _580  and  _583
REMARK  240  A    between atoms: _583  and  _584
REMARK  241  A    between atoms: _587  and  _589
REMARK  242  A    between atoms: _589  and  _590
REMARK  243  A    between atoms: _589  and  _592
REMARK  244  A    between atoms: _592  and  _593
REMARK  245  A    between atoms: _596  and  _598
REMARK  246  A    between atoms: _598  and  _599
REMARK  247  A    between atoms: _598  and  _601
REMARK  248  A    between atoms: _601  and  _602
REMARK  249  A    between atoms: _605  and  _607
REMARK  250  A    between atoms: _607  and  _608
REMARK  251  A    between atoms: _607  and  _610
REMARK  252  A    between atoms: _610  and  _611
REMARK  253  A    between atoms: _617  and  _619
REMARK  254  A    between atoms: _619  and  _620
REMARK  255  A    between atoms: _622  and  _624
REMARK  256  A    between atoms: _624  and  _625
REMARK  257  A    between atoms: _624  and  _627
REMARK  258  A    between atoms: _627  and  _628
REMARK  259  A    between atoms: _631  and  _633
REMARK  260  A    between atoms: _633  and  _634
REMARK  261  A    between atoms: _633  and  _636
REMARK  262  A    between atoms: _636  and  _637
REMARK                            x       y       z     vdW  Elec       q    Type
REMARK                         _______ _______ _______ _____ _____    ______ ____
ROOT
ATOM      1  O   HOH     1      31.912  24.067  41.047  0.00  0.00    +0.000 OA
ENDROOT
TORSDOF 0
REMARK  Name = ../refined-set-2016/3e93/3e93_pocket.pdb
REMARK  262 active torsions:
REMARK  status: ('A' for Active; 'I' for Inactive)
REMARK    1  A    between atoms: _1  and  _3
REMARK    2  A    between atoms: _3  and  _4
REMARK    3  A    between atoms: _3  and  _6
REMARK    4  A    between atoms: _6  and  _7
REMARK    5  A    between atoms: _17  and  _19
REMARK    6  A    between atoms: _19  and  _20
REMARK    7  A    between atoms: _19  and  _22
REMARK    8  A    between atoms: _22  and  _23
REMARK    9  A    between atoms: _26  and  _27
REMARK   10  A    between atoms: _32  and  _34
REMARK   11  A    between atoms: _34  and  _35
REMARK   12  A    between atoms: _34  and  _37
REMARK   13  A    between atoms: _40  and  _42
REMARK   14  A    between atoms: _42  and  _43
REMARK   15  A    between atoms: _45  and  _47
REMARK   16  A    between atoms: _47  and  _48
REMARK   17  A    between atoms: _47  and  _50
REMARK   18  A    between atoms: _50  and  _51
REMARK   19  A    between atoms: _53  and  _55
REMARK   20  A    between atoms: _55  and  _56
REMARK   21  A    between atoms: _55  and  _58
REMARK   22  A    between atoms: _58  and  _59
REMARK   23  A    between atoms: _61  and  _63
REMARK   24  A    between atoms: _63  and  _64
REMARK   25  A    between atoms: _63  and  _66
REMARK   26  A    between atoms: _69  and  _71
REMARK   27  A    between atoms: _71  and  _72
REMARK   28  A    between atoms: _71  and  _74
REMARK   29  A    between atoms: _76  and  _78
REMARK   30  A    between atoms: _78  and  _79
REMARK   31  A    between atoms: _82  and  _84
REMARK   32  A    between atoms: _84  and  _85
REMARK   33  A    between atoms: _88  and  _90
REMARK   34  A    between atoms: _90  and  _91
REMARK   35  A    between atoms: _90  and  _93
REMARK   36  A    between atoms: _93  and  _94
REMARK   37  A    between atoms: _94  and  _95
REMARK   38  A    between atoms: _95  and  _96
REMARK   39  A    between atoms: _105  and  _107
REMARK   40  A    between atoms: _107  and  _108
REMARK   41  A    between atoms: _107  and  _110
REMARK   42  A    between atoms: _113  and  _115
REMARK   43  A    between atoms: _115  and  _116
REMARK   44  A    between atoms: _119  and  _121
REMARK   45  A    between atoms: _121  and  _122
REMARK   46  A    between atoms: _121  and  _124
REMARK   47  A    between atoms: _127  and  _129
REMARK   48  A    between atoms: _129  and  _130
REMARK   49  A    between atoms: _129  and  _132
REMARK   50  A    between atoms: _132  and  _133
REMARK   51  A    between atoms: _133  and  _134
REMARK   52  A    between atoms: _134  and  _135
REMARK   53  A    between atoms: _135  and  _136
REMARK   54  A    between atoms: _140  and  _142
REMARK   55  A    between atoms: _142  and  _143
REMARK   56  A    between atoms: _142  and  _145
REMARK   57  A    between atoms: _145  and  _146
REMARK   58  A    between atoms: _146  and  _147
REMARK   59  A    between atoms: _147  and  _148
REMARK   60  A    between atoms: _148  and  _149
REMARK   61  A    between atoms: _153  and  _155
REMARK   62  A    between atoms: _155  and  _156
REMARK   63  A    between atoms: _155  and  _158
REMARK   64  A    between atoms: _158  and  _159
REMARK   65  A    between atoms: _162  and  _164
REMARK   66  A    between atoms: _164  and  _165
REMARK   67  A    between atoms: _164  and  _167
REMARK   68  A    between atoms: _167  and  _168
REMARK   69  A    between atoms: _168  and  _169
REMARK   70  A    between atoms: _169  and  _170
REMARK   71  A    between atoms: _179  and  _181
REMARK   72  A    between atoms: _181  and  _182
REMARK   73  A    between atoms: _181  and  _184
REMARK   74  A    between atoms: _184  and  _185
REMARK   75  A    between atoms: _185  and  _186
REMARK   76  A    between atoms: _186  and  _187
REMARK   77  A    between atoms: _196  and  _198
REMARK   78  A    between atoms: _198  and  _199
REMARK   79  A    between atoms: _198  and  _201
REMARK   80  A    between atoms: _201  and  _202
REMARK   81  A    between atoms: _202  and  _203
REMARK   82  A    between atoms: _206  and  _208
REMARK   83  A    between atoms: _208  and  _209
REMARK   84  A    between atoms: _208  and  _211
REMARK   85  A    between atoms: _211  and  _212
REMARK   86  A    between atoms: _215  and  _217
REMARK   87  A    between atoms: _217  and  _218
REMARK   88  A    between atoms: _217  and  _220
REMARK   89  A    between atoms: _220  and  _221
REMARK   90  A    between atoms: _224  and  _226
REMARK   91  A    between atoms: _226  and  _227
REMARK   92  A    between atoms: _226  and  _229
REMARK   93  A    between atoms: _229  and  _230
REMARK   94  A    between atoms: _233  and  _235
REMARK   95  A    between atoms: _235  and  _236
REMARK   96  A    between atoms: _235  and  _238
REMARK   97  A    between atoms: _238  and  _239
REMARK   98  A    between atoms: _239  and  _240
REMARK   99  A    between atoms: _242  and  _244
REMARK  100  A    between atoms: _244  and  _245
REMARK  101  A    between atoms: _244  and  _247
REMARK  102  A    between atoms: _247  and  _248
REMARK  103  A    between atoms: _253  and  _255
REMARK  104  A    between atoms: _255  and  _256
REMARK  105  A    between atoms: _255  and  _258
REMARK  106  A    between atoms: _258  and  _259
REMARK  107  A    between atoms: _264  and  _266
REMARK  108  A    between atoms: _266  and  _267
REMARK  109  A    between atoms: _266  and  _269
REMARK  110  A    between atoms: _272  and  _274
REMARK  111  A    between atoms: _274  and  _275
REMARK  112  A    between atoms: _274  and  _277
REMARK  113  A    between atoms: _277  and  _278
REMARK  114  A    between atoms: _281  and  _283
REMARK  115  A    between atoms: _283  and  _284
REMARK  116  A    between atoms: _286  and  _288
REMARK  117  A    between atoms: _288  and  _289
REMARK  118  A    between atoms: _288  and  _291
REMARK  119  A    between atoms: _291  and  _292
REMARK  120  A    between atoms: _295  and  _297
REMARK  121  A    between atoms: _297  and  _298
REMARK  122  A    between atoms: _297  and  _300
REMARK  123  A    between atoms: _300  and  _301
REMARK  124  A    between atoms: _304  and  _306
REMARK  125  A    between atoms: _306  and  _307
REMARK  126  A    between atoms: _306  and  _309
REMARK  127  A    between atoms: _309  and  _310
REMARK  128  A    between atoms: _313  and  _315
REMARK  129  A    between atoms: _315  and  _316
REMARK  130  A    between atoms: _315  and  _318
REMARK  131  A    between atoms: _318  and  _319
REMARK  132  A    between atoms: _324  and  _325
REMARK  133  A    between atoms: _327  and  _329
REMARK  134  A    between atoms: _329  and  _330
REMARK  135  A    between atoms: _329  and  _332
REMARK  136  A    between atoms: _332  and  _333
REMARK  137  A    between atoms: _336  and  _338
REMARK  138  A    between atoms: _338  and  _339
REMARK  139  A    between atoms: _338  and  _341
REMARK  140  A    between atoms: _344  and  _346
REMARK  141  A    between atoms: _346  and  _347
REMARK  142  A    between atoms: _346  and  _349
REMARK  143  A    between atoms: _349  and  _350
REMARK  144  A    between atoms: _353  and  _355
REMARK  145  A    between atoms: _355  and  _356
REMARK  146  A    between atoms: _355  and  _358
REMARK  147  A    between atoms: _358  and  _359
REMARK  148  A    between atoms: _364  and  _366
REMARK  149  A    between atoms: _366  and  _367
REMARK  150  A    between atoms: _366  and  _369
REMARK  151  A    between atoms: _369  and  _370
REMARK  152  A    between atoms: _373  and  _375
REMARK  153  A    between atoms: _375  and  _376
REMARK  154  A    between atoms: _375  and  _378
REMARK  155  A    between atoms: _378  and  _379
REMARK  156  A    between atoms: _379  and  _380
REMARK  157  A    between atoms: _382  and  _384
REMARK  158  A    between atoms: _384  and  _385
REMARK  159  A    between atoms: _387  and  _389
REMARK  160  A    between atoms: _389  and  _390
REMARK  161  A    between atoms: _393  and  _395
REMARK  162  A    between atoms: _395  and  _396
REMARK  163  A    between atoms: _395  and  _398
REMARK  164  A    between atoms: _398  and  _399
REMARK  165  A    between atoms: _402  and  _404
REMARK  166  A    between atoms: _404  and  _405
REMARK  167  A    between atoms: _404  and  _407
REMARK  168  A    between atoms: _407  and  _408
REMARK  169  A    between atoms: _413  and  _415
REMARK  170  A    between atoms: _415  and  _416
REMARK  171  A    between atoms: _418  and  _420
REMARK  172  A    between atoms: _420  and  _421
REMARK  173  A    between atoms: _420  and  _423
REMARK  174  A    between atoms: _423  and  _424
REMARK  175  A    between atoms: _427  and  _429
REMARK  176  A    between atoms: _429  and  _430
REMARK  177  A    between atoms: _429  and  _432
REMARK  178  A    between atoms: _432  and  _433
REMARK  179  A    between atoms: _438  and  _439
REMARK  180  A    between atoms: _441  and  _443
REMARK  181  A    between atoms: _443  and  _444
REMARK  182  A    between atoms: _443  and  _446
REMARK  183  A    between atoms: _446  and  _447
REMARK  184  A    between atoms: _450  and  _452
REMARK  185  A    between atoms: _452  and  _453
REMARK  186  A    between atoms: _452  and  _455
REMARK  187  A    between atoms: _455  and  _456
REMARK  188  A    between atoms: _461  and  _463
REMARK  189  A    between atoms: _463  and  _464
REMARK  190  A    between atoms: _467  and  _469
REMARK  191  A    between atoms: _469  and  _470
REMARK  192  A    between atoms: _469  and  _472
REMARK  193  A    between atoms: _472  and  _473
REMARK  194  A    between atoms: _476  and  _478
REMARK  195  A    between atoms: _478  and  _479
REMARK  196  A    between atoms: _478  and  _481
REMARK  197  A    between atoms: _481  and  _482
REMARK  198  A    between atoms: _485  and  _487
REMARK  199  A    between atoms: _487  and  _488
REMARK  200  A    between atoms: _487  and  _490
REMARK  201  A    between atoms: _490  and  _491
REMARK  202  A    between atoms: _496  and  _498
REMARK  203  A    between atoms: _498  and  _499
REMARK  204  A    between atoms: _498  and  _501
REMARK  205  A    between atoms: _501  and  _502
REMARK  206  A    between atoms: _502  and  _503
REMARK  207  A    between atoms: _503  and  _504
REMARK  208  A    between atoms: _513  and  _515
REMARK  209  A    between atoms: _515  and  _516
REMARK  210  A    between atoms: _515  and  _518
REMARK  211  A    between atoms: _518  and  _519
REMARK  212  A    between atoms: _522  and  _524
REMARK  213  A    between atoms: _524  and  _525
REMARK  214  A    between atoms: _524  and  _527
REMARK  215  A    between atoms: _527  and  _528
REMARK  216  A    between atoms: _531  and  _533
REMARK  217  A    between atoms: _533  and  _534
REMARK  218  A    between atoms: _533  and  _536
REMARK  219  A    between atoms: _536  and  _537
REMARK  220  A    between atoms: _539  and  _541
REMARK  221  A    between atoms: _541  and  _542
REMARK  222  A    between atoms: _541  and  _544
REMARK  223  A    between atoms: _544  and  _545
REMARK  224  A    between atoms: _550  and  _552
REMARK  225  A    between atoms: _552  and  _553
REMARK  226  A    between atoms: _552  and  _555
REMARK  227  A    between atoms: _555  and  _556
REMARK  228  A    between atoms: _559  and  _561
REMARK  229  A    between atoms: _561  and  _562
REMARK  230  A    between atoms: _565  and  _567
REMARK  231  A    between atoms: _567  and  _568
REMARK  232  A    between atoms: _567  and  _570
REMARK  233  A    between atoms: _570  and  _571
REMARK  234  A    between atoms: _571  and  _572
REMARK  235  A    between atoms: _572  and  _573
REMARK  236  A    between atoms: _573  and  _574
REMARK  237  A    between atoms: _578  and  _580
REMARK  238  A    between atoms: _580  and  _581
REMARK  239  A    between atoms: _580  and  _583
REMARK  240  A    between atoms: _583  and  _584
REMARK  241  A    between atoms: _587  and  _589
REMARK  242  A    between atoms: _589  and  _590
REMARK  243  A    between atoms: _589  and  _592
REMARK  244  A    between atoms: _592  and  _593
REMARK  245  A    between atoms: _596  and  _598
REMARK  246  A    between atoms: _598  and  _599
REMARK  247  A    between atoms: _598  and  _601
REMARK  248  A    between atoms: _601  and  _602
REMARK  249  A    between atoms: _605  and  _607
REMARK  250  A    between atoms: _607  and  _608
REMARK  251  A    between atoms: _607  and  _610
REMARK  252  A    between atoms: _610  and  _611
REMARK  253  A    between atoms: _617  and  _619
REMARK  254  A    between atoms: _619  and  _620
REMARK  255  A    between atoms: _622  and  _624
REMARK  256  A    between atoms: _624  and  _625
REMARK  257  A    between atoms: _624  and  _627
REMARK  258  A    between atoms: _627  and  _628
REMARK  259  A    between atoms: _631  and  _633
REMARK  260  A    between atoms: _633  and  _634
REMARK  261  A    between atoms: _633  and  _636
REMARK  262  A    between atoms: _636  and  _637
REMARK                            x       y       z     vdW  Elec       q    Type
REMARK                         _______ _______ _______ _____ _____    ______ ____
ROOT
ATOM      1  O   HOH     1      49.918  26.954  32.627  0.00  0.00    +0.000 OA
ENDROOT
TORSDOF 0
REMARK  Name = ../refined-set-2016/3e93/3e93_pocket.pdb
REMARK  262 active torsions:
REMARK  status: ('A' for Active; 'I' for Inactive)
REMARK    1  A    between atoms: _1  and  _3
REMARK    2  A    between atoms: _3  and  _4
REMARK    3  A    between atoms: _3  and  _6
REMARK    4  A    between atoms: _6  and  _7
REMARK    5  A    between atoms: _17  and  _19
REMARK    6  A    between atoms: _19  and  _20
REMARK    7  A    between atoms: _19  and  _22
REMARK    8  A    between atoms: _22  and  _23
REMARK    9  A    between atoms: _26  and  _27
REMARK   10  A    between atoms: _32  and  _34
REMARK   11  A    between atoms: _34  and  _35
REMARK   12  A    between atoms: _34  and  _37
REMARK   13  A    between atoms: _40  and  _42
REMARK   14  A    between atoms: _42  and  _43
REMARK   15  A    between atoms: _45  and  _47
REMARK   16  A    between atoms: _47  and  _48
REMARK   17  A    between atoms: _47  and  _50
REMARK   18  A    between atoms: _50  and  _51
REMARK   19  A    between atoms: _53  and  _55
REMARK   20  A    between atoms: _55  and  _56
REMARK   21  A    between atoms: _55  and  _58
REMARK   22  A    between atoms: _58  and  _59
REMARK   23  A    between atoms: _61  and  _63
REMARK   24  A    between atoms: _63  and  _64
REMARK   25  A    between atoms: _63  and  _66
REMARK   26  A    between atoms: _69  and  _71
REMARK   27  A    between atoms: _71  and  _72
REMARK   28  A    between atoms: _71  and  _74
REMARK   29  A    between atoms: _76  and  _78
REMARK   30  A    between atoms: _78  and  _79
REMARK   31  A    between atoms: _82  and  _84
REMARK   32  A    between atoms: _84  and  _85
REMARK   33  A    between atoms: _88  and  _90
REMARK   34  A    between atoms: _90  and  _91
REMARK   35  A    between atoms: _90  and  _93
REMARK   36  A    between atoms: _93  and  _94
REMARK   37  A    between atoms: _94  and  _95
REMARK   38  A    between atoms: _95  and  _96
REMARK   39  A    between atoms: _105  and  _107
REMARK   40  A    between atoms: _107  and  _108
REMARK   41  A    between atoms: _107  and  _110
REMARK   42  A    between atoms: _113  and  _115
REMARK   43  A    between atoms: _115  and  _116
REMARK   44  A    between atoms: _119  and  _121
REMARK   45  A    between atoms: _121  and  _122
REMARK   46  A    between atoms: _121  and  _124
REMARK   47  A    between atoms: _127  and  _129
REMARK   48  A    between atoms: _129  and  _130
REMARK   49  A    between atoms: _129  and  _132
REMARK   50  A    between atoms: _132  and  _133
REMARK   51  A    between atoms: _133  and  _134
REMARK   52  A    between atoms: _134  and  _135
REMARK   53  A    between atoms: _135  and  _136
REMARK   54  A    between atoms: _140  and  _142
REMARK   55  A    between atoms: _142  and  _143
REMARK   56  A    between atoms: _142  and  _145
REMARK   57  A    between atoms: _145  and  _146
REMARK   58  A    between atoms: _146  and  _147
REMARK   59  A    between atoms: _147  and  _148
REMARK   60  A    between atoms: _148  and  _149
REMARK   61  A    between atoms: _153  and  _155
REMARK   62  A    between atoms: _155  and  _156
REMARK   63  A    between atoms: _155  and  _158
REMARK   64  A    between atoms: _158  and  _159
REMARK   65  A    between atoms: _162  and  _164
REMARK   66  A    between atoms: _164  and  _165
REMARK   67  A    between atoms: _164  and  _167
REMARK   68  A    between atoms: _167  and  _168
REMARK   69  A    between atoms: _168  and  _169
REMARK   70  A    between atoms: _169  and  _170
REMARK   71  A    between atoms: _179  and  _181
REMARK   72  A    between atoms: _181  and  _182
REMARK   73  A    between atoms: _181  and  _184
REMARK   74  A    between atoms: _184  and  _185
REMARK   75  A    between atoms: _185  and  _186
REMARK   76  A    between atoms: _186  and  _187
REMARK   77  A    between atoms: _196  and  _198
REMARK   78  A    between atoms: _198  and  _199
REMARK   79  A    between atoms: _198  and  _201
REMARK   80  A    between atoms: _201  and  _202
REMARK   81  A    between atoms: _202  and  _203
REMARK   82  A    between atoms: _206  and  _208
REMARK   83  A    between atoms: _208  and  _209
REMARK   84  A    between atoms: _208  and  _211
REMARK   85  A    between atoms: _211  and  _212
REMARK   86  A    between atoms: _215  and  _217
REMARK   87  A    between atoms: _217  and  _218
REMARK   88  A    between atoms: _217  and  _220
REMARK   89  A    between atoms: _220  and  _221
REMARK   90  A    between atoms: _224  and  _226
REMARK   91  A    between atoms: _226  and  _227
REMARK   92  A    between atoms: _226  and  _229
REMARK   93  A    between atoms: _229  and  _230
REMARK   94  A    between atoms: _233  and  _235
REMARK   95  A    between atoms: _235  and  _236
REMARK   96  A    between atoms: _235  and  _238
REMARK   97  A    between atoms: _238  and  _239
REMARK   98  A    between atoms: _239  and  _240
REMARK   99  A    between atoms: _242  and  _244
REMARK  100  A    between atoms: _244  and  _245
REMARK  101  A    between atoms: _244  and  _247
REMARK  102  A    between atoms: _247  and  _248
REMARK  103  A    between atoms: _253  and  _255
REMARK  104  A    between atoms: _255  and  _256
REMARK  105  A    between atoms: _255  and  _258
REMARK  106  A    between atoms: _258  and  _259
REMARK  107  A    between atoms: _264  and  _266
REMARK  108  A    between atoms: _266  and  _267
REMARK  109  A    between atoms: _266  and  _269
REMARK  110  A    between atoms: _272  and  _274
REMARK  111  A    between atoms: _274  and  _275
REMARK  112  A    between atoms: _274  and  _277
REMARK  113  A    between atoms: _277  and  _278
REMARK  114  A    between atoms: _281  and  _283
REMARK  115  A    between atoms: _283  and  _284
REMARK  116  A    between atoms: _286  and  _288
REMARK  117  A    between atoms: _288  and  _289
REMARK  118  A    between atoms: _288  and  _291
REMARK  119  A    between atoms: _291  and  _292
REMARK  120  A    between atoms: _295  and  _297
REMARK  121  A    between atoms: _297  and  _298
REMARK  122  A    between atoms: _297  and  _300
REMARK  123  A    between atoms: _300  and  _301
REMARK  124  A    between atoms: _304  and  _306
REMARK  125  A    between atoms: _306  and  _307
REMARK  126  A    between atoms: _306  and  _309
REMARK  127  A    between atoms: _309  and  _310
REMARK  128  A    between atoms: _313  and  _315
REMARK  129  A    between atoms: _315  and  _316
REMARK  130  A    between atoms: _315  and  _318
REMARK  131  A    between atoms: _318  and  _319
REMARK  132  A    between atoms: _324  and  _325
REMARK  133  A    between atoms: _327  and  _329
REMARK  134  A    between atoms: _329  and  _330
REMARK  135  A    between atoms: _329  and  _332
REMARK  136  A    between atoms: _332  and  _333
REMARK  137  A    between atoms: _336  and  _338
REMARK  138  A    between atoms: _338  and  _339
REMARK  139  A    between atoms: _338  and  _341
REMARK  140  A    between atoms: _344  and  _346
REMARK  141  A    between atoms: _346  and  _347
REMARK  142  A    between atoms: _346  and  _349
REMARK  143  A    between atoms: _349  and  _350
REMARK  144  A    between atoms: _353  and  _355
REMARK  145  A    between atoms: _355  and  _356
REMARK  146  A    between atoms: _355  and  _358
REMARK  147  A    between atoms: _358  and  _359
REMARK  148  A    between atoms: _364  and  _366
REMARK  149  A    between atoms: _366  and  _367
REMARK  150  A    between atoms: _366  and  _369
REMARK  151  A    between atoms: _369  and  _370
REMARK  152  A    between atoms: _373  and  _375
REMARK  153  A    between atoms: _375  and  _376
REMARK  154  A    between atoms: _375  and  _378
REMARK  155  A    between atoms: _378  and  _379
REMARK  156  A    between atoms: _379  and  _380
REMARK  157  A    between atoms: _382  and  _384
REMARK  158  A    between atoms: _384  and  _385
REMARK  159  A    between atoms: _387  and  _389
REMARK  160  A    between atoms: _389  and  _390
REMARK  161  A    between atoms: _393  and  _395
REMARK  162  A    between atoms: _395  and  _396
REMARK  163  A    between atoms: _395  and  _398
REMARK  164  A    between atoms: _398  and  _399
REMARK  165  A    between atoms: _402  and  _404
REMARK  166  A    between atoms: _404  and  _405
REMARK  167  A    between atoms: _404  and  _407
REMARK  168  A    between atoms: _407  and  _408
REMARK  169  A    between atoms: _413  and  _415
REMARK  170  A    between atoms: _415  and  _416
REMARK  171  A    between atoms: _418  and  _420
REMARK  172  A    between atoms: _420  and  _421
REMARK  173  A    between atoms: _420  and  _423
REMARK  174  A    between atoms: _423  and  _424
REMARK  175  A    between atoms: _427  and  _429
REMARK  176  A    between atoms: _429  and  _430
REMARK  177  A    between atoms: _429  and  _432
REMARK  178  A    between atoms: _432  and  _433
REMARK  179  A    between atoms: _438  and  _439
REMARK  180  A    between atoms: _441  and  _443
REMARK  181  A    between atoms: _443  and  _444
REMARK  182  A    between atoms: _443  and  _446
REMARK  183  A    between atoms: _446  and  _447
REMARK  184  A    between atoms: _450  and  _452
REMARK  185  A    between atoms: _452  and  _453
REMARK  186  A    between atoms: _452  and  _455
REMARK  187  A    between atoms: _455  and  _456
REMARK  188  A    between atoms: _461  and  _463
REMARK  189  A    between atoms: _463  and  _464
REMARK  190  A    between atoms: _467  and  _469
REMARK  191  A    between atoms: _469  and  _470
REMARK  192  A    between atoms: _469  and  _472
REMARK  193  A    between atoms: _472  and  _473
REMARK  194  A    between atoms: _476  and  _478
REMARK  195  A    between atoms: _478  and  _479
REMARK  196  A    between atoms: _478  and  _481
REMARK  197  A    between atoms: _481  and  _482
REMARK  198  A    between atoms: _485  and  _487
REMARK  199  A    between atoms: _487  and  _488
REMARK  200  A    between atoms: _487  and  _490
REMARK  201  A    between atoms: _490  and  _491
REMARK  202  A    between atoms: _496  and  _498
REMARK  203  A    between atoms: _498  and  _499
REMARK  204  A    between atoms: _498  and  _501
REMARK  205  A    between atoms: _501  and  _502
REMARK  206  A    between atoms: _502  and  _503
REMARK  207  A    between atoms: _503  and  _504
REMARK  208  A    between atoms: _513  and  _515
REMARK  209  A    between atoms: _515  and  _516
REMARK  210  A    between atoms: _515  and  _518
REMARK  211  A    between atoms: _518  and  _519
REMARK  212  A    between atoms: _522  and  _524
REMARK  213  A    between atoms: _524  and  _525
REMARK  214  A    between atoms: _524  and  _527
REMARK  215  A    between atoms: _527  and  _528
REMARK  216  A    between atoms: _531  and  _533
REMARK  217  A    between atoms: _533  and  _534
REMARK  218  A    between atoms: _533  and  _536
REMARK  219  A    between atoms: _536  and  _537
REMARK  220  A    between atoms: _539  and  _541
REMARK  221  A    between atoms: _541  and  _542
REMARK  222  A    between atoms: _541  and  _544
REMARK  223  A    between atoms: _544  and  _545
REMARK  224  A    between atoms: _550  and  _552
REMARK  225  A    between atoms: _552  and  _553
REMARK  226  A    between atoms: _552  and  _555
REMARK  227  A    between atoms: _555  and  _556
REMARK  228  A    between atoms: _559  and  _561
REMARK  229  A    between atoms: _561  and  _562
REMARK  230  A    between atoms: _565  and  _567
REMARK  231  A    between atoms: _567  and  _568
REMARK  232  A    between atoms: _567  and  _570
REMARK  233  A    between atoms: _570  and  _571
REMARK  234  A    between atoms: _571  and  _572
REMARK  235  A    between atoms: _572  and  _573
REMARK  236  A    between atoms: _573  and  _574
REMARK  237  A    between atoms: _578  and  _580
REMARK  238  A    between atoms: _580  and  _581
REMARK  239  A    between atoms: _580  and  _583
REMARK  240  A    between atoms: _583  and  _584
REMARK  241  A    between atoms: _587  and  _589
REMARK  242  A    between atoms: _589  and  _590
REMARK  243  A    between atoms: _589  and  _592
REMARK  244  A    between atoms: _592  and  _593
REMARK  245  A    between atoms: _596  and  _598
REMARK  246  A    between atoms: _598  and  _599
REMARK  247  A    between atoms: _598  and  _601
REMARK  248  A    between atoms: _601  and  _602
REMARK  249  A    between atoms: _605  and  _607
REMARK  250  A    between atoms: _607  and  _608
REMARK  251  A    between atoms: _607  and  _610
REMARK  252  A    between atoms: _610  and  _611
REMARK  253  A    between atoms: _617  and  _619
REMARK  254  A    between atoms: _619  and  _620
REMARK  255  A    between atoms: _622  and  _624
REMARK  256  A    between atoms: _624  and  _625
REMARK  257  A    between atoms: _624  and  _627
REMARK  258  A    between atoms: _627  and  _628
REMARK  259  A    between atoms: _631  and  _633
REMARK  260  A    between atoms: _633  and  _634
REMARK  261  A    between atoms: _633  and  _636
REMARK  262  A    between atoms: _636  and  _637
REMARK                            x       y       z     vdW  Elec       q    Type
REMARK                         _______ _______ _______ _____ _____    ______ ____
ROOT
ATOM      1  O   HOH     1      36.679  21.054  44.921  0.00  0.00    +0.000 OA
ENDROOT
TORSDOF 0
REMARK  Name = ../refined-set-2016/3e93/3e93_pocket.pdb
REMARK  262 active torsions:
REMARK  status: ('A' for Active; 'I' for Inactive)
REMARK    1  A    between atoms: _1  and  _3
REMARK    2  A    between atoms: _3  and  _4
REMARK    3  A    between atoms: _3  and  _6
REMARK    4  A    between atoms: _6  and  _7
REMARK    5  A    between atoms: _17  and  _19
REMARK    6  A    between atoms: _19  and  _20
REMARK    7  A    between atoms: _19  and  _22
REMARK    8  A    between atoms: _22  and  _23
REMARK    9  A    between atoms: _26  and  _27
REMARK   10  A    between atoms: _32  and  _34
REMARK   11  A    between atoms: _34  and  _35
REMARK   12  A    between atoms: _34  and  _37
REMARK   13  A    between atoms: _40  and  _42
REMARK   14  A    between atoms: _42  and  _43
REMARK   15  A    between atoms: _45  and  _47
REMARK   16  A    between atoms: _47  and  _48
REMARK   17  A    between atoms: _47  and  _50
REMARK   18  A    between atoms: _50  and  _51
REMARK   19  A    between atoms: _53  and  _55
REMARK   20  A    between atoms: _55  and  _56
REMARK   21  A    between atoms: _55  and  _58
REMARK   22  A    between atoms: _58  and  _59
REMARK   23  A    between atoms: _61  and  _63
REMARK   24  A    between atoms: _63  and  _64
REMARK   25  A    between atoms: _63  and  _66
REMARK   26  A    between atoms: _69  and  _71
REMARK   27  A    between atoms: _71  and  _72
REMARK   28  A    between atoms: _71  and  _74
REMARK   29  A    between atoms: _76  and  _78
REMARK   30  A    between atoms: _78  and  _79
REMARK   31  A    between atoms: _82  and  _84
REMARK   32  A    between atoms: _84  and  _85
REMARK   33  A    between atoms: _88  and  _90
REMARK   34  A    between atoms: _90  and  _91
REMARK   35  A    between atoms: _90  and  _93
REMARK   36  A    between atoms: _93  and  _94
REMARK   37  A    between atoms: _94  and  _95
REMARK   38  A    between atoms: _95  and  _96
REMARK   39  A    between atoms: _105  and  _107
REMARK   40  A    between atoms: _107  and  _108
REMARK   41  A    between atoms: _107  and  _110
REMARK   42  A    between atoms: _113  and  _115
REMARK   43  A    between atoms: _115  and  _116
REMARK   44  A    between atoms: _119  and  _121
REMARK   45  A    between atoms: _121  and  _122
REMARK   46  A    between atoms: _121  and  _124
REMARK   47  A    between atoms: _127  and  _129
REMARK   48  A    between atoms: _129  and  _130
REMARK   49  A    between atoms: _129  and  _132
REMARK   50  A    between atoms: _132  and  _133
REMARK   51  A    between atoms: _133  and  _134
REMARK   52  A    between atoms: _134  and  _135
REMARK   53  A    between atoms: _135  and  _136
REMARK   54  A    between atoms: _140  and  _142
REMARK   55  A    between atoms: _142  and  _143
REMARK   56  A    between atoms: _142  and  _145
REMARK   57  A    between atoms: _145  and  _146
REMARK   58  A    between atoms: _146  and  _147
REMARK   59  A    between atoms: _147  and  _148
REMARK   60  A    between atoms: _148  and  _149
REMARK   61  A    between atoms: _153  and  _155
REMARK   62  A    between atoms: _155  and  _156
REMARK   63  A    between atoms: _155  and  _158
REMARK   64  A    between atoms: _158  and  _159
REMARK   65  A    between atoms: _162  and  _164
REMARK   66  A    between atoms: _164  and  _165
REMARK   67  A    between atoms: _164  and  _167
REMARK   68  A    between atoms: _167  and  _168
REMARK   69  A    between atoms: _168  and  _169
REMARK   70  A    between atoms: _169  and  _170
REMARK   71  A    between atoms: _179  and  _181
REMARK   72  A    between atoms: _181  and  _182
REMARK   73  A    between atoms: _181  and  _184
REMARK   74  A    between atoms: _184  and  _185
REMARK   75  A    between atoms: _185  and  _186
REMARK   76  A    between atoms: _186  and  _187
REMARK   77  A    between atoms: _196  and  _198
REMARK   78  A    between atoms: _198  and  _199
REMARK   79  A    between atoms: _198  and  _201
REMARK   80  A    between atoms: _201  and  _202
REMARK   81  A    between atoms: _202  and  _203
REMARK   82  A    between atoms: _206  and  _208
REMARK   83  A    between atoms: _208  and  _209
REMARK   84  A    between atoms: _208  and  _211
REMARK   85  A    between atoms: _211  and  _212
REMARK   86  A    between atoms: _215  and  _217
REMARK   87  A    between atoms: _217  and  _218
REMARK   88  A    between atoms: _217  and  _220
REMARK   89  A    between atoms: _220  and  _221
REMARK   90  A    between atoms: _224  and  _226
REMARK   91  A    between atoms: _226  and  _227
REMARK   92  A    between atoms: _226  and  _229
REMARK   93  A    between atoms: _229  and  _230
REMARK   94  A    between atoms: _233  and  _235
REMARK   95  A    between atoms: _235  and  _236
REMARK   96  A    between atoms: _235  and  _238
REMARK   97  A    between atoms: _238  and  _239
REMARK   98  A    between atoms: _239  and  _240
REMARK   99  A    between atoms: _242  and  _244
REMARK  100  A    between atoms: _244  and  _245
REMARK  101  A    between atoms: _244  and  _247
REMARK  102  A    between atoms: _247  and  _248
REMARK  103  A    between atoms: _253  and  _255
REMARK  104  A    between atoms: _255  and  _256
REMARK  105  A    between atoms: _255  and  _258
REMARK  106  A    between atoms: _258  and  _259
REMARK  107  A    between atoms: _264  and  _266
REMARK  108  A    between atoms: _266  and  _267
REMARK  109  A    between atoms: _266  and  _269
REMARK  110  A    between atoms: _272  and  _274
REMARK  111  A    between atoms: _274  and  _275
REMARK  112  A    between atoms: _274  and  _277
REMARK  113  A    between atoms: _277  and  _278
REMARK  114  A    between atoms: _281  and  _283
REMARK  115  A    between atoms: _283  and  _284
REMARK  116  A    between atoms: _286  and  _288
REMARK  117  A    between atoms: _288  and  _289
REMARK  118  A    between atoms: _288  and  _291
REMARK  119  A    between atoms: _291  and  _292
REMARK  120  A    between atoms: _295  and  _297
REMARK  121  A    between atoms: _297  and  _298
REMARK  122  A    between atoms: _297  and  _300
REMARK  123  A    between atoms: _300  and  _301
REMARK  124  A    between atoms: _304  and  _306
REMARK  125  A    between atoms: _306  and  _307
REMARK  126  A    between atoms: _306  and  _309
REMARK  127  A    between atoms: _309  and  _310
REMARK  128  A    between atoms: _313  and  _315
REMARK  129  A    between atoms: _315  and  _316
REMARK  130  A    between atoms: _315  and  _318
REMARK  131  A    between atoms: _318  and  _319
REMARK  132  A    between atoms: _324  and  _325
REMARK  133  A    between atoms: _327  and  _329
REMARK  134  A    between atoms: _329  and  _330
REMARK  135  A    between atoms: _329  and  _332
REMARK  136  A    between atoms: _332  and  _333
REMARK  137  A    between atoms: _336  and  _338
REMARK  138  A    between atoms: _338  and  _339
REMARK  139  A    between atoms: _338  and  _341
REMARK  140  A    between atoms: _344  and  _346
REMARK  141  A    between atoms: _346  and  _347
REMARK  142  A    between atoms: _346  and  _349
REMARK  143  A    between atoms: _349  and  _350
REMARK  144  A    between atoms: _353  and  _355
REMARK  145  A    between atoms: _355  and  _356
REMARK  146  A    between atoms: _355  and  _358
REMARK  147  A    between atoms: _358  and  _359
REMARK  148  A    between atoms: _364  and  _366
REMARK  149  A    between atoms: _366  and  _367
REMARK  150  A    between atoms: _366  and  _369
REMARK  151  A    between atoms: _369  and  _370
REMARK  152  A    between atoms: _373  and  _375
REMARK  153  A    between atoms: _375  and  _376
REMARK  154  A    between atoms: _375  and  _378
REMARK  155  A    between atoms: _378  and  _379
REMARK  156  A    between atoms: _379  and  _380
REMARK  157  A    between atoms: _382  and  _384
REMARK  158  A    between atoms: _384  and  _385
REMARK  159  A    between atoms: _387  and  _389
REMARK  160  A    between atoms: _389  and  _390
REMARK  161  A    between atoms: _393  and  _395
REMARK  162  A    between atoms: _395  and  _396
REMARK  163  A    between atoms: _395  and  _398
REMARK  164  A    between atoms: _398  and  _399
REMARK  165  A    between atoms: _402  and  _404
REMARK  166  A    between atoms: _404  and  _405
REMARK  167  A    between atoms: _404  and  _407
REMARK  168  A    between atoms: _407  and  _408
REMARK  169  A    between atoms: _413  and  _415
REMARK  170  A    between atoms: _415  and  _416
REMARK  171  A    between atoms: _418  and  _420
REMARK  172  A    between atoms: _420  and  _421
REMARK  173  A    between atoms: _420  and  _423
REMARK  174  A    between atoms: _423  and  _424
REMARK  175  A    between atoms: _427  and  _429
REMARK  176  A    between atoms: _429  and  _430
REMARK  177  A    between atoms: _429  and  _432
REMARK  178  A    between atoms: _432  and  _433
REMARK  179  A    between atoms: _438  and  _439
REMARK  180  A    between atoms: _441  and  _443
REMARK  181  A    between atoms: _443  and  _444
REMARK  182  A    between atoms: _443  and  _446
REMARK  183  A    between atoms: _446  and  _447
REMARK  184  A    between atoms: _450  and  _452
REMARK  185  A    between atoms: _452  and  _453
REMARK  186  A    between atoms: _452  and  _455
REMARK  187  A    between atoms: _455  and  _456
REMARK  188  A    between atoms: _461  and  _463
REMARK  189  A    between atoms: _463  and  _464
REMARK  190  A    between atoms: _467  and  _469
REMARK  191  A    between atoms: _469  and  _470
REMARK  192  A    between atoms: _469  and  _472
REMARK  193  A    between atoms: _472  and  _473
REMARK  194  A    between atoms: _476  and  _478
REMARK  195  A    between atoms: _478  and  _479
REMARK  196  A    between atoms: _478  and  _481
REMARK  197  A    between atoms: _481  and  _482
REMARK  198  A    between atoms: _485  and  _487
REMARK  199  A    between atoms: _487  and  _488
REMARK  200  A    between atoms: _487  and  _490
REMARK  201  A    between atoms: _490  and  _491
REMARK  202  A    between atoms: _496  and  _498
REMARK  203  A    between atoms: _498  and  _499
REMARK  204  A    between atoms: _498  and  _501
REMARK  205  A    between atoms: _501  and  _502
REMARK  206  A    between atoms: _502  and  _503
REMARK  207  A    between atoms: _503  and  _504
REMARK  208  A    between atoms: _513  and  _515
REMARK  209  A    between atoms: _515  and  _516
REMARK  210  A    between atoms: _515  and  _518
REMARK  211  A    between atoms: _518  and  _519
REMARK  212  A    between atoms: _522  and  _524
REMARK  213  A    between atoms: _524  and  _525
REMARK  214  A    between atoms: _524  and  _527
REMARK  215  A    between atoms: _527  and  _528
REMARK  216  A    between atoms: _531  and  _533
REMARK  217  A    between atoms: _533  and  _534
REMARK  218  A    between atoms: _533  and  _536
REMARK  219  A    between atoms: _536  and  _537
REMARK  220  A    between atoms: _539  and  _541
REMARK  221  A    between atoms: _541  and  _542
REMARK  222  A    between atoms: _541  and  _544
REMARK  223  A    between atoms: _544  and  _545
REMARK  224  A    between atoms: _550  and  _552
REMARK  225  A    between atoms: _552  and  _553
REMARK  226  A    between atoms: _552  and  _555
REMARK  227  A    between atoms: _555  and  _556
REMARK  228  A    between atoms: _559  and  _561
REMARK  229  A    between atoms: _561  and  _562
REMARK  230  A    between atoms: _565  and  _567
REMARK  231  A    between atoms: _567  and  _568
REMARK  232  A    between atoms: _567  and  _570
REMARK  233  A    between atoms: _570  and  _571
REMARK  234  A    between atoms: _571  and  _572
REMARK  235  A    between atoms: _572  and  _573
REMARK  236  A    between atoms: _573  and  _574
REMARK  237  A    between atoms: _578  and  _580
REMARK  238  A    between atoms: _580  and  _581
REMARK  239  A    between atoms: _580  and  _583
REMARK  240  A    between atoms: _583  and  _584
REMARK  241  A    between atoms: _587  and  _589
REMARK  242  A    between atoms: _589  and  _590
REMARK  243  A    between atoms: _589  and  _592
REMARK  244  A    between atoms: _592  and  _593
REMARK  245  A    between atoms: _596  and  _598
REMARK  246  A    between atoms: _598  and  _599
REMARK  247  A    between atoms: _598  and  _601
REMARK  248  A    between atoms: _601  and  _602
REMARK  249  A    between atoms: _605  and  _607
REMARK  250  A    between atoms: _607  and  _608
REMARK  251  A    between atoms: _607  and  _610
REMARK  252  A    between atoms: _610  and  _611
REMARK  253  A    between atoms: _617  and  _619
REMARK  254  A    between atoms: _619  and  _620
REMARK  255  A    between atoms: _622  and  _624
REMARK  256  A    between atoms: _624  and  _625
REMARK  257  A    between atoms: _624  and  _627
REMARK  258  A    between atoms: _627  and  _628
REMARK  259  A    between atoms: _631  and  _633
REMARK  260  A    between atoms: _633  and  _634
REMARK  261  A    between atoms: _633  and  _636
REMARK  262  A    between atoms: _636  and  _637
REMARK                            x       y       z     vdW  Elec       q    Type
REMARK                         _______ _______ _______ _____ _____    ______ ____
ROOT
ATOM      1  O   HOH     1      36.887  19.589  36.696  0.00  0.00    +0.000 OA
ENDROOT
TORSDOF 0
REMARK  Name = ../refined-set-2016/3e93/3e93_pocket.pdb
REMARK  262 active torsions:
REMARK  status: ('A' for Active; 'I' for Inactive)
REMARK    1  A    between atoms: _1  and  _3
REMARK    2  A    between atoms: _3  and  _4
REMARK    3  A    between atoms: _3  and  _6
REMARK    4  A    between atoms: _6  and  _7
REMARK    5  A    between atoms: _17  and  _19
REMARK    6  A    between atoms: _19  and  _20
REMARK    7  A    between atoms: _19  and  _22
REMARK    8  A    between atoms: _22  and  _23
REMARK    9  A    between atoms: _26  and  _27
REMARK   10  A    between atoms: _32  and  _34
REMARK   11  A    between atoms: _34  and  _35
REMARK   12  A    between atoms: _34  and  _37
REMARK   13  A    between atoms: _40  and  _42
REMARK   14  A    between atoms: _42  and  _43
REMARK   15  A    between atoms: _45  and  _47
REMARK   16  A    between atoms: _47  and  _48
REMARK   17  A    between atoms: _47  and  _50
REMARK   18  A    between atoms: _50  and  _51
REMARK   19  A    between atoms: _53  and  _55
REMARK   20  A    between atoms: _55  and  _56
REMARK   21  A    between atoms: _55  and  _58
REMARK   22  A    between atoms: _58  and  _59
REMARK   23  A    between atoms: _61  and  _63
REMARK   24  A    between atoms: _63  and  _64
REMARK   25  A    between atoms: _63  and  _66
REMARK   26  A    between atoms: _69  and  _71
REMARK   27  A    between atoms: _71  and  _72
REMARK   28  A    between atoms: _71  and  _74
REMARK   29  A    between atoms: _76  and  _78
REMARK   30  A    between atoms: _78  and  _79
REMARK   31  A    between atoms: _82  and  _84
REMARK   32  A    between atoms: _84  and  _85
REMARK   33  A    between atoms: _88  and  _90
REMARK   34  A    between atoms: _90  and  _91
REMARK   35  A    between atoms: _90  and  _93
REMARK   36  A    between atoms: _93  and  _94
REMARK   37  A    between atoms: _94  and  _95
REMARK   38  A    between atoms: _95  and  _96
REMARK   39  A    between atoms: _105  and  _107
REMARK   40  A    between atoms: _107  and  _108
REMARK   41  A    between atoms: _107  and  _110
REMARK   42  A    between atoms: _113  and  _115
REMARK   43  A    between atoms: _115  and  _116
REMARK   44  A    between atoms: _119  and  _121
REMARK   45  A    between atoms: _121  and  _122
REMARK   46  A    between atoms: _121  and  _124
REMARK   47  A    between atoms: _127  and  _129
REMARK   48  A    between atoms: _129  and  _130
REMARK   49  A    between atoms: _129  and  _132
REMARK   50  A    between atoms: _132  and  _133
REMARK   51  A    between atoms: _133  and  _134
REMARK   52  A    between atoms: _134  and  _135
REMARK   53  A    between atoms: _135  and  _136
REMARK   54  A    between atoms: _140  and  _142
REMARK   55  A    between atoms: _142  and  _143
REMARK   56  A    between atoms: _142  and  _145
REMARK   57  A    between atoms: _145  and  _146
REMARK   58  A    between atoms: _146  and  _147
REMARK   59  A    between atoms: _147  and  _148
REMARK   60  A    between atoms: _148  and  _149
REMARK   61  A    between atoms: _153  and  _155
REMARK   62  A    between atoms: _155  and  _156
REMARK   63  A    between atoms: _155  and  _158
REMARK   64  A    between atoms: _158  and  _159
REMARK   65  A    between atoms: _162  and  _164
REMARK   66  A    between atoms: _164  and  _165
REMARK   67  A    between atoms: _164  and  _167
REMARK   68  A    between atoms: _167  and  _168
REMARK   69  A    between atoms: _168  and  _169
REMARK   70  A    between atoms: _169  and  _170
REMARK   71  A    between atoms: _179  and  _181
REMARK   72  A    between atoms: _181  and  _182
REMARK   73  A    between atoms: _181  and  _184
REMARK   74  A    between atoms: _184  and  _185
REMARK   75  A    between atoms: _185  and  _186
REMARK   76  A    between atoms: _186  and  _187
REMARK   77  A    between atoms: _196  and  _198
REMARK   78  A    between atoms: _198  and  _199
REMARK   79  A    between atoms: _198  and  _201
REMARK   80  A    between atoms: _201  and  _202
REMARK   81  A    between atoms: _202  and  _203
REMARK   82  A    between atoms: _206  and  _208
REMARK   83  A    between atoms: _208  and  _209
REMARK   84  A    between atoms: _208  and  _211
REMARK   85  A    between atoms: _211  and  _212
REMARK   86  A    between atoms: _215  and  _217
REMARK   87  A    between atoms: _217  and  _218
REMARK   88  A    between atoms: _217  and  _220
REMARK   89  A    between atoms: _220  and  _221
REMARK   90  A    between atoms: _224  and  _226
REMARK   91  A    between atoms: _226  and  _227
REMARK   92  A    between atoms: _226  and  _229
REMARK   93  A    between atoms: _229  and  _230
REMARK   94  A    between atoms: _233  and  _235
REMARK   95  A    between atoms: _235  and  _236
REMARK   96  A    between atoms: _235  and  _238
REMARK   97  A    between atoms: _238  and  _239
REMARK   98  A    between atoms: _239  and  _240
REMARK   99  A    between atoms: _242  and  _244
REMARK  100  A    between atoms: _244  and  _245
REMARK  101  A    between atoms: _244  and  _247
REMARK  102  A    between atoms: _247  and  _248
REMARK  103  A    between atoms: _253  and  _255
REMARK  104  A    between atoms: _255  and  _256
REMARK  105  A    between atoms: _255  and  _258
REMARK  106  A    between atoms: _258  and  _259
REMARK  107  A    between atoms: _264  and  _266
REMARK  108  A    between atoms: _266  and  _267
REMARK  109  A    between atoms: _266  and  _269
REMARK  110  A    between atoms: _272  and  _274
REMARK  111  A    between atoms: _274  and  _275
REMARK  112  A    between atoms: _274  and  _277
REMARK  113  A    between atoms: _277  and  _278
REMARK  114  A    between atoms: _281  and  _283
REMARK  115  A    between atoms: _283  and  _284
REMARK  116  A    between atoms: _286  and  _288
REMARK  117  A    between atoms: _288  and  _289
REMARK  118  A    between atoms: _288  and  _291
REMARK  119  A    between atoms: _291  and  _292
REMARK  120  A    between atoms: _295  and  _297
REMARK  121  A    between atoms: _297  and  _298
REMARK  122  A    between atoms: _297  and  _300
REMARK  123  A    between atoms: _300  and  _301
REMARK  124  A    between atoms: _304  and  _306
REMARK  125  A    between atoms: _306  and  _307
REMARK  126  A    between atoms: _306  and  _309
REMARK  127  A    between atoms: _309  and  _310
REMARK  128  A    between atoms: _313  and  _315
REMARK  129  A    between atoms: _315  and  _316
REMARK  130  A    between atoms: _315  and  _318
REMARK  131  A    between atoms: _318  and  _319
REMARK  132  A    between atoms: _324  and  _325
REMARK  133  A    between atoms: _327  and  _329
REMARK  134  A    between atoms: _329  and  _330
REMARK  135  A    between atoms: _329  and  _332
REMARK  136  A    between atoms: _332  and  _333
REMARK  137  A    between atoms: _336  and  _338
REMARK  138  A    between atoms: _338  and  _339
REMARK  139  A    between atoms: _338  and  _341
REMARK  140  A    between atoms: _344  and  _346
REMARK  141  A    between atoms: _346  and  _347
REMARK  142  A    between atoms: _346  and  _349
REMARK  143  A    between atoms: _349  and  _350
REMARK  144  A    between atoms: _353  and  _355
REMARK  145  A    between atoms: _355  and  _356
REMARK  146  A    between atoms: _355  and  _358
REMARK  147  A    between atoms: _358  and  _359
REMARK  148  A    between atoms: _364  and  _366
REMARK  149  A    between atoms: _366  and  _367
REMARK  150  A    between atoms: _366  and  _369
REMARK  151  A    between atoms: _369  and  _370
REMARK  152  A    between atoms: _373  and  _375
REMARK  153  A    between atoms: _375  and  _376
REMARK  154  A    between atoms: _375  and  _378
REMARK  155  A    between atoms: _378  and  _379
REMARK  156  A    between atoms: _379  and  _380
REMARK  157  A    between atoms: _382  and  _384
REMARK  158  A    between atoms: _384  and  _385
REMARK  159  A    between atoms: _387  and  _389
REMARK  160  A    between atoms: _389  and  _390
REMARK  161  A    between atoms: _393  and  _395
REMARK  162  A    between atoms: _395  and  _396
REMARK  163  A    between atoms: _395  and  _398
REMARK  164  A    between atoms: _398  and  _399
REMARK  165  A    between atoms: _402  and  _404
REMARK  166  A    between atoms: _404  and  _405
REMARK  167  A    between atoms: _404  and  _407
REMARK  168  A    between atoms: _407  and  _408
REMARK  169  A    between atoms: _413  and  _415
REMARK  170  A    between atoms: _415  and  _416
REMARK  171  A    between atoms: _418  and  _420
REMARK  172  A    between atoms: _420  and  _421
REMARK  173  A    between atoms: _420  and  _423
REMARK  174  A    between atoms: _423  and  _424
REMARK  175  A    between atoms: _427  and  _429
REMARK  176  A    between atoms: _429  and  _430
REMARK  177  A    between atoms: _429  and  _432
REMARK  178  A    between atoms: _432  and  _433
REMARK  179  A    between atoms: _438  and  _439
REMARK  180  A    between atoms: _441  and  _443
REMARK  181  A    between atoms: _443  and  _444
REMARK  182  A    between atoms: _443  and  _446
REMARK  183  A    between atoms: _446  and  _447
REMARK  184  A    between atoms: _450  and  _452
REMARK  185  A    between atoms: _452  and  _453
REMARK  186  A    between atoms: _452  and  _455
REMARK  187  A    between atoms: _455  and  _456
REMARK  188  A    between atoms: _461  and  _463
REMARK  189  A    between atoms: _463  and  _464
REMARK  190  A    between atoms: _467  and  _469
REMARK  191  A    between atoms: _469  and  _470
REMARK  192  A    between atoms: _469  and  _472
REMARK  193  A    between atoms: _472  and  _473
REMARK  194  A    between atoms: _476  and  _478
REMARK  195  A    between atoms: _478  and  _479
REMARK  196  A    between atoms: _478  and  _481
REMARK  197  A    between atoms: _481  and  _482
REMARK  198  A    between atoms: _485  and  _487
REMARK  199  A    between atoms: _487  and  _488
REMARK  200  A    between atoms: _487  and  _490
REMARK  201  A    between atoms: _490  and  _491
REMARK  202  A    between atoms: _496  and  _498
REMARK  203  A    between atoms: _498  and  _499
REMARK  204  A    between atoms: _498  and  _501
REMARK  205  A    between atoms: _501  and  _502
REMARK  206  A    between atoms: _502  and  _503
REMARK  207  A    between atoms: _503  and  _504
REMARK  208  A    between atoms: _513  and  _515
REMARK  209  A    between atoms: _515  and  _516
REMARK  210  A    between atoms: _515  and  _518
REMARK  211  A    between atoms: _518  and  _519
REMARK  212  A    between atoms: _522  and  _524
REMARK  213  A    between atoms: _524  and  _525
REMARK  214  A    between atoms: _524  and  _527
REMARK  215  A    between atoms: _527  and  _528
REMARK  216  A    between atoms: _531  and  _533
REMARK  217  A    between atoms: _533  and  _534
REMARK  218  A    between atoms: _533  and  _536
REMARK  219  A    between atoms: _536  and  _537
REMARK  220  A    between atoms: _539  and  _541
REMARK  221  A    between atoms: _541  and  _542
REMARK  222  A    between atoms: _541  and  _544
REMARK  223  A    between atoms: _544  and  _545
REMARK  224  A    between atoms: _550  and  _552
REMARK  225  A    between atoms: _552  and  _553
REMARK  226  A    between atoms: _552  and  _555
REMARK  227  A    between atoms: _555  and  _556
REMARK  228  A    between atoms: _559  and  _561
REMARK  229  A    between atoms: _561  and  _562
REMARK  230  A    between atoms: _565  and  _567
REMARK  231  A    between atoms: _567  and  _568
REMARK  232  A    between atoms: _567  and  _570
REMARK  233  A    between atoms: _570  and  _571
REMARK  234  A    between atoms: _571  and  _572
REMARK  235  A    between atoms: _572  and  _573
REMARK  236  A    between atoms: _573  and  _574
REMARK  237  A    between atoms: _578  and  _580
REMARK  238  A    between atoms: _580  and  _581
REMARK  239  A    between atoms: _580  and  _583
REMARK  240  A    between atoms: _583  and  _584
REMARK  241  A    between atoms: _587  and  _589
REMARK  242  A    between atoms: _589  and  _590
REMARK  243  A    between atoms: _589  and  _592
REMARK  244  A    between atoms: _592  and  _593
REMARK  245  A    between atoms: _596  and  _598
REMARK  246  A    between atoms: _598  and  _599
REMARK  247  A    between atoms: _598  and  _601
REMARK  248  A    between atoms: _601  and  _602
REMARK  249  A    between atoms: _605  and  _607
REMARK  250  A    between atoms: _607  and  _608
REMARK  251  A    between atoms: _607  and  _610
REMARK  252  A    between atoms: _610  and  _611
REMARK  253  A    between atoms: _617  and  _619
REMARK  254  A    between atoms: _619  and  _620
REMARK  255  A    between atoms: _622  and  _624
REMARK  256  A    between atoms: _624  and  _625
REMARK  257  A    between atoms: _624  and  _627
REMARK  258  A    between atoms: _627  and  _628
REMARK  259  A    between atoms: _631  and  _633
REMARK  260  A    between atoms: _633  and  _634
REMARK  261  A    between atoms: _633  and  _636
REMARK  262  A    between atoms: _636  and  _637
REMARK                            x       y       z     vdW  Elec       q    Type
REMARK                         _______ _______ _______ _____ _____    ______ ____
ROOT
ATOM      1  O   HOH     1      46.332  23.484  36.629  0.00  0.00    +0.000 OA
ENDROOT
TORSDOF 0
REMARK  Name = ../refined-set-2016/3e93/3e93_pocket.pdb
REMARK  262 active torsions:
REMARK  status: ('A' for Active; 'I' for Inactive)
REMARK    1  A    between atoms: _1  and  _3
REMARK    2  A    between atoms: _3  and  _4
REMARK    3  A    between atoms: _3  and  _6
REMARK    4  A    between atoms: _6  and  _7
REMARK    5  A    between atoms: _17  and  _19
REMARK    6  A    between atoms: _19  and  _20
REMARK    7  A    between atoms: _19  and  _22
REMARK    8  A    between atoms: _22  and  _23
REMARK    9  A    between atoms: _26  and  _27
REMARK   10  A    between atoms: _32  and  _34
REMARK   11  A    between atoms: _34  and  _35
REMARK   12  A    between atoms: _34  and  _37
REMARK   13  A    between atoms: _40  and  _42
REMARK   14  A    between atoms: _42  and  _43
REMARK   15  A    between atoms: _45  and  _47
REMARK   16  A    between atoms: _47  and  _48
REMARK   17  A    between atoms: _47  and  _50
REMARK   18  A    between atoms: _50  and  _51
REMARK   19  A    between atoms: _53  and  _55
REMARK   20  A    between atoms: _55  and  _56
REMARK   21  A    between atoms: _55  and  _58
REMARK   22  A    between atoms: _58  and  _59
REMARK   23  A    between atoms: _61  and  _63
REMARK   24  A    between atoms: _63  and  _64
REMARK   25  A    between atoms: _63  and  _66
REMARK   26  A    between atoms: _69  and  _71
REMARK   27  A    between atoms: _71  and  _72
REMARK   28  A    between atoms: _71  and  _74
REMARK   29  A    between atoms: _76  and  _78
REMARK   30  A    between atoms: _78  and  _79
REMARK   31  A    between atoms: _82  and  _84
REMARK   32  A    between atoms: _84  and  _85
REMARK   33  A    between atoms: _88  and  _90
REMARK   34  A    between atoms: _90  and  _91
REMARK   35  A    between atoms: _90  and  _93
REMARK   36  A    between atoms: _93  and  _94
REMARK   37  A    between atoms: _94  and  _95
REMARK   38  A    between atoms: _95  and  _96
REMARK   39  A    between atoms: _105  and  _107
REMARK   40  A    between atoms: _107  and  _108
REMARK   41  A    between atoms: _107  and  _110
REMARK   42  A    between atoms: _113  and  _115
REMARK   43  A    between atoms: _115  and  _116
REMARK   44  A    between atoms: _119  and  _121
REMARK   45  A    between atoms: _121  and  _122
REMARK   46  A    between atoms: _121  and  _124
REMARK   47  A    between atoms: _127  and  _129
REMARK   48  A    between atoms: _129  and  _130
REMARK   49  A    between atoms: _129  and  _132
REMARK   50  A    between atoms: _132  and  _133
REMARK   51  A    between atoms: _133  and  _134
REMARK   52  A    between atoms: _134  and  _135
REMARK   53  A    between atoms: _135  and  _136
REMARK   54  A    between atoms: _140  and  _142
REMARK   55  A    between atoms: _142  and  _143
REMARK   56  A    between atoms: _142  and  _145
REMARK   57  A    between atoms: _145  and  _146
REMARK   58  A    between atoms: _146  and  _147
REMARK   59  A    between atoms: _147  and  _148
REMARK   60  A    between atoms: _148  and  _149
REMARK   61  A    between atoms: _153  and  _155
REMARK   62  A    between atoms: _155  and  _156
REMARK   63  A    between atoms: _155  and  _158
REMARK   64  A    between atoms: _158  and  _159
REMARK   65  A    between atoms: _162  and  _164
REMARK   66  A    between atoms: _164  and  _165
REMARK   67  A    between atoms: _164  and  _167
REMARK   68  A    between atoms: _167  and  _168
REMARK   69  A    between atoms: _168  and  _169
REMARK   70  A    between atoms: _169  and  _170
REMARK   71  A    between atoms: _179  and  _181
REMARK   72  A    between atoms: _181  and  _182
REMARK   73  A    between atoms: _181  and  _184
REMARK   74  A    between atoms: _184  and  _185
REMARK   75  A    between atoms: _185  and  _186
REMARK   76  A    between atoms: _186  and  _187
REMARK   77  A    between atoms: _196  and  _198
REMARK   78  A    between atoms: _198  and  _199
REMARK   79  A    between atoms: _198  and  _201
REMARK   80  A    between atoms: _201  and  _202
REMARK   81  A    between atoms: _202  and  _203
REMARK   82  A    between atoms: _206  and  _208
REMARK   83  A    between atoms: _208  and  _209
REMARK   84  A    between atoms: _208  and  _211
REMARK   85  A    between atoms: _211  and  _212
REMARK   86  A    between atoms: _215  and  _217
REMARK   87  A    between atoms: _217  and  _218
REMARK   88  A    between atoms: _217  and  _220
REMARK   89  A    between atoms: _220  and  _221
REMARK   90  A    between atoms: _224  and  _226
REMARK   91  A    between atoms: _226  and  _227
REMARK   92  A    between atoms: _226  and  _229
REMARK   93  A    between atoms: _229  and  _230
REMARK   94  A    between atoms: _233  and  _235
REMARK   95  A    between atoms: _235  and  _236
REMARK   96  A    between atoms: _235  and  _238
REMARK   97  A    between atoms: _238  and  _239
REMARK   98  A    between atoms: _239  and  _240
REMARK   99  A    between atoms: _242  and  _244
REMARK  100  A    between atoms: _244  and  _245
REMARK  101  A    between atoms: _244  and  _247
REMARK  102  A    between atoms: _247  and  _248
REMARK  103  A    between atoms: _253  and  _255
REMARK  104  A    between atoms: _255  and  _256
REMARK  105  A    between atoms: _255  and  _258
REMARK  106  A    between atoms: _258  and  _259
REMARK  107  A    between atoms: _264  and  _266
REMARK  108  A    between atoms: _266  and  _267
REMARK  109  A    between atoms: _266  and  _269
REMARK  110  A    between atoms: _272  and  _274
REMARK  111  A    between atoms: _274  and  _275
REMARK  112  A    between atoms: _274  and  _277
REMARK  113  A    between atoms: _277  and  _278
REMARK  114  A    between atoms: _281  and  _283
REMARK  115  A    between atoms: _283  and  _284
REMARK  116  A    between atoms: _286  and  _288
REMARK  117  A    between atoms: _288  and  _289
REMARK  118  A    between atoms: _288  and  _291
REMARK  119  A    between atoms: _291  and  _292
REMARK  120  A    between atoms: _295  and  _297
REMARK  121  A    between atoms: _297  and  _298
REMARK  122  A    between atoms: _297  and  _300
REMARK  123  A    between atoms: _300  and  _301
REMARK  124  A    between atoms: _304  and  _306
REMARK  125  A    between atoms: _306  and  _307
REMARK  126  A    between atoms: _306  and  _309
REMARK  127  A    between atoms: _309  and  _310
REMARK  128  A    between atoms: _313  and  _315
REMARK  129  A    between atoms: _315  and  _316
REMARK  130  A    between atoms: _315  and  _318
REMARK  131  A    between atoms: _318  and  _319
REMARK  132  A    between atoms: _324  and  _325
REMARK  133  A    between atoms: _327  and  _329
REMARK  134  A    between atoms: _329  and  _330
REMARK  135  A    between atoms: _329  and  _332
REMARK  136  A    between atoms: _332  and  _333
REMARK  137  A    between atoms: _336  and  _338
REMARK  138  A    between atoms: _338  and  _339
REMARK  139  A    between atoms: _338  and  _341
REMARK  140  A    between atoms: _344  and  _346
REMARK  141  A    between atoms: _346  and  _347
REMARK  142  A    between atoms: _346  and  _349
REMARK  143  A    between atoms: _349  and  _350
REMARK  144  A    between atoms: _353  and  _355
REMARK  145  A    between atoms: _355  and  _356
REMARK  146  A    between atoms: _355  and  _358
REMARK  147  A    between atoms: _358  and  _359
REMARK  148  A    between atoms: _364  and  _366
REMARK  149  A    between atoms: _366  and  _367
REMARK  150  A    between atoms: _366  and  _369
REMARK  151  A    between atoms: _369  and  _370
REMARK  152  A    between atoms: _373  and  _375
REMARK  153  A    between atoms: _375  and  _376
REMARK  154  A    between atoms: _375  and  _378
REMARK  155  A    between atoms: _378  and  _379
REMARK  156  A    between atoms: _379  and  _380
REMARK  157  A    between atoms: _382  and  _384
REMARK  158  A    between atoms: _384  and  _385
REMARK  159  A    between atoms: _387  and  _389
REMARK  160  A    between atoms: _389  and  _390
REMARK  161  A    between atoms: _393  and  _395
REMARK  162  A    between atoms: _395  and  _396
REMARK  163  A    between atoms: _395  and  _398
REMARK  164  A    between atoms: _398  and  _399
REMARK  165  A    between atoms: _402  and  _404
REMARK  166  A    between atoms: _404  and  _405
REMARK  167  A    between atoms: _404  and  _407
REMARK  168  A    between atoms: _407  and  _408
REMARK  169  A    between atoms: _413  and  _415
REMARK  170  A    between atoms: _415  and  _416
REMARK  171  A    between atoms: _418  and  _420
REMARK  172  A    between atoms: _420  and  _421
REMARK  173  A    between atoms: _420  and  _423
REMARK  174  A    between atoms: _423  and  _424
REMARK  175  A    between atoms: _427  and  _429
REMARK  176  A    between atoms: _429  and  _430
REMARK  177  A    between atoms: _429  and  _432
REMARK  178  A    between atoms: _432  and  _433
REMARK  179  A    between atoms: _438  and  _439
REMARK  180  A    between atoms: _441  and  _443
REMARK  181  A    between atoms: _443  and  _444
REMARK  182  A    between atoms: _443  and  _446
REMARK  183  A    between atoms: _446  and  _447
REMARK  184  A    between atoms: _450  and  _452
REMARK  185  A    between atoms: _452  and  _453
REMARK  186  A    between atoms: _452  and  _455
REMARK  187  A    between atoms: _455  and  _456
REMARK  188  A    between atoms: _461  and  _463
REMARK  189  A    between atoms: _463  and  _464
REMARK  190  A    between atoms: _467  and  _469
REMARK  191  A    between atoms: _469  and  _470
REMARK  192  A    between atoms: _469  and  _472
REMARK  193  A    between atoms: _472  and  _473
REMARK  194  A    between atoms: _476  and  _478
REMARK  195  A    between atoms: _478  and  _479
REMARK  196  A    between atoms: _478  and  _481
REMARK  197  A    between atoms: _481  and  _482
REMARK  198  A    between atoms: _485  and  _487
REMARK  199  A    between atoms: _487  and  _488
REMARK  200  A    between atoms: _487  and  _490
REMARK  201  A    between atoms: _490  and  _491
REMARK  202  A    between atoms: _496  and  _498
REMARK  203  A    between atoms: _498  and  _499
REMARK  204  A    between atoms: _498  and  _501
REMARK  205  A    between atoms: _501  and  _502
REMARK  206  A    between atoms: _502  and  _503
REMARK  207  A    between atoms: _503  and  _504
REMARK  208  A    between atoms: _513  and  _515
REMARK  209  A    between atoms: _515  and  _516
REMARK  210  A    between atoms: _515  and  _518
REMARK  211  A    between atoms: _518  and  _519
REMARK  212  A    between atoms: _522  and  _524
REMARK  213  A    between atoms: _524  and  _525
REMARK  214  A    between atoms: _524  and  _527
REMARK  215  A    between atoms: _527  and  _528
REMARK  216  A    between atoms: _531  and  _533
REMARK  217  A    between atoms: _533  and  _534
REMARK  218  A    between atoms: _533  and  _536
REMARK  219  A    between atoms: _536  and  _537
REMARK  220  A    between atoms: _539  and  _541
REMARK  221  A    between atoms: _541  and  _542
REMARK  222  A    between atoms: _541  and  _544
REMARK  223  A    between atoms: _544  and  _545
REMARK  224  A    between atoms: _550  and  _552
REMARK  225  A    between atoms: _552  and  _553
REMARK  226  A    between atoms: _552  and  _555
REMARK  227  A    between atoms: _555  and  _556
REMARK  228  A    between atoms: _559  and  _561
REMARK  229  A    between atoms: _561  and  _562
REMARK  230  A    between atoms: _565  and  _567
REMARK  231  A    between atoms: _567  and  _568
REMARK  232  A    between atoms: _567  and  _570
REMARK  233  A    between atoms: _570  and  _571
REMARK  234  A    between atoms: _571  and  _572
REMARK  235  A    between atoms: _572  and  _573
REMARK  236  A    between atoms: _573  and  _574
REMARK  237  A    between atoms: _578  and  _580
REMARK  238  A    between atoms: _580  and  _581
REMARK  239  A    between atoms: _580  and  _583
REMARK  240  A    between atoms: _583  and  _584
REMARK  241  A    between atoms: _587  and  _589
REMARK  242  A    between atoms: _589  and  _590
REMARK  243  A    between atoms: _589  and  _592
REMARK  244  A    between atoms: _592  and  _593
REMARK  245  A    between atoms: _596  and  _598
REMARK  246  A    between atoms: _598  and  _599
REMARK  247  A    between atoms: _598  and  _601
REMARK  248  A    between atoms: _601  and  _602
REMARK  249  A    between atoms: _605  and  _607
REMARK  250  A    between atoms: _607  and  _608
REMARK  251  A    between atoms: _607  and  _610
REMARK  252  A    between atoms: _610  and  _611
REMARK  253  A    between atoms: _617  and  _619
REMARK  254  A    between atoms: _619  and  _620
REMARK  255  A    between atoms: _622  and  _624
REMARK  256  A    between atoms: _624  and  _625
REMARK  257  A    between atoms: _624  and  _627
REMARK  258  A    between atoms: _627  and  _628
REMARK  259  A    between atoms: _631  and  _633
REMARK  260  A    between atoms: _633  and  _634
REMARK  261  A    between atoms: _633  and  _636
REMARK  262  A    between atoms: _636  and  _637
REMARK                            x       y       z     vdW  Elec       q    Type
REMARK                         _______ _______ _______ _____ _____    ______ ____
ROOT
ATOM      1  O   HOH     1      41.991  27.819  32.315  0.00  0.00    +0.000 OA
ENDROOT
TORSDOF 0
REMARK  Name = ../refined-set-2016/3e93/3e93_pocket.pdb
REMARK  262 active torsions:
REMARK  status: ('A' for Active; 'I' for Inactive)
REMARK    1  A    between atoms: _1  and  _3
REMARK    2  A    between atoms: _3  and  _4
REMARK    3  A    between atoms: _3  and  _6
REMARK    4  A    between atoms: _6  and  _7
REMARK    5  A    between atoms: _17  and  _19
REMARK    6  A    between atoms: _19  and  _20
REMARK    7  A    between atoms: _19  and  _22
REMARK    8  A    between atoms: _22  and  _23
REMARK    9  A    between atoms: _26  and  _27
REMARK   10  A    between atoms: _32  and  _34
REMARK   11  A    between atoms: _34  and  _35
REMARK   12  A    between atoms: _34  and  _37
REMARK   13  A    between atoms: _40  and  _42
REMARK   14  A    between atoms: _42  and  _43
REMARK   15  A    between atoms: _45  and  _47
REMARK   16  A    between atoms: _47  and  _48
REMARK   17  A    between atoms: _47  and  _50
REMARK   18  A    between atoms: _50  and  _51
REMARK   19  A    between atoms: _53  and  _55
REMARK   20  A    between atoms: _55  and  _56
REMARK   21  A    between atoms: _55  and  _58
REMARK   22  A    between atoms: _58  and  _59
REMARK   23  A    between atoms: _61  and  _63
REMARK   24  A    between atoms: _63  and  _64
REMARK   25  A    between atoms: _63  and  _66
REMARK   26  A    between atoms: _69  and  _71
REMARK   27  A    between atoms: _71  and  _72
REMARK   28  A    between atoms: _71  and  _74
REMARK   29  A    between atoms: _76  and  _78
REMARK   30  A    between atoms: _78  and  _79
REMARK   31  A    between atoms: _82  and  _84
REMARK   32  A    between atoms: _84  and  _85
REMARK   33  A    between atoms: _88  and  _90
REMARK   34  A    between atoms: _90  and  _91
REMARK   35  A    between atoms: _90  and  _93
REMARK   36  A    between atoms: _93  and  _94
REMARK   37  A    between atoms: _94  and  _95
REMARK   38  A    between atoms: _95  and  _96
REMARK   39  A    between atoms: _105  and  _107
REMARK   40  A    between atoms: _107  and  _108
REMARK   41  A    between atoms: _107  and  _110
REMARK   42  A    between atoms: _113  and  _115
REMARK   43  A    between atoms: _115  and  _116
REMARK   44  A    between atoms: _119  and  _121
REMARK   45  A    between atoms: _121  and  _122
REMARK   46  A    between atoms: _121  and  _124
REMARK   47  A    between atoms: _127  and  _129
REMARK   48  A    between atoms: _129  and  _130
REMARK   49  A    between atoms: _129  and  _132
REMARK   50  A    between atoms: _132  and  _133
REMARK   51  A    between atoms: _133  and  _134
REMARK   52  A    between atoms: _134  and  _135
REMARK   53  A    between atoms: _135  and  _136
REMARK   54  A    between atoms: _140  and  _142
REMARK   55  A    between atoms: _142  and  _143
REMARK   56  A    between atoms: _142  and  _145
REMARK   57  A    between atoms: _145  and  _146
REMARK   58  A    between atoms: _146  and  _147
REMARK   59  A    between atoms: _147  and  _148
REMARK   60  A    between atoms: _148  and  _149
REMARK   61  A    between atoms: _153  and  _155
REMARK   62  A    between atoms: _155  and  _156
REMARK   63  A    between atoms: _155  and  _158
REMARK   64  A    between atoms: _158  and  _159
REMARK   65  A    between atoms: _162  and  _164
REMARK   66  A    between atoms: _164  and  _165
REMARK   67  A    between atoms: _164  and  _167
REMARK   68  A    between atoms: _167  and  _168
REMARK   69  A    between atoms: _168  and  _169
REMARK   70  A    between atoms: _169  and  _170
REMARK   71  A    between atoms: _179  and  _181
REMARK   72  A    between atoms: _181  and  _182
REMARK   73  A    between atoms: _181  and  _184
REMARK   74  A    between atoms: _184  and  _185
REMARK   75  A    between atoms: _185  and  _186
REMARK   76  A    between atoms: _186  and  _187
REMARK   77  A    between atoms: _196  and  _198
REMARK   78  A    between atoms: _198  and  _199
REMARK   79  A    between atoms: _198  and  _201
REMARK   80  A    between atoms: _201  and  _202
REMARK   81  A    between atoms: _202  and  _203
REMARK   82  A    between atoms: _206  and  _208
REMARK   83  A    between atoms: _208  and  _209
REMARK   84  A    between atoms: _208  and  _211
REMARK   85  A    between atoms: _211  and  _212
REMARK   86  A    between atoms: _215  and  _217
REMARK   87  A    between atoms: _217  and  _218
REMARK   88  A    between atoms: _217  and  _220
REMARK   89  A    between atoms: _220  and  _221
REMARK   90  A    between atoms: _224  and  _226
REMARK   91  A    between atoms: _226  and  _227
REMARK   92  A    between atoms: _226  and  _229
REMARK   93  A    between atoms: _229  and  _230
REMARK   94  A    between atoms: _233  and  _235
REMARK   95  A    between atoms: _235  and  _236
REMARK   96  A    between atoms: _235  and  _238
REMARK   97  A    between atoms: _238  and  _239
REMARK   98  A    between atoms: _239  and  _240
REMARK   99  A    between atoms: _242  and  _244
REMARK  100  A    between atoms: _244  and  _245
REMARK  101  A    between atoms: _244  and  _247
REMARK  102  A    between atoms: _247  and  _248
REMARK  103  A    between atoms: _253  and  _255
REMARK  104  A    between atoms: _255  and  _256
REMARK  105  A    between atoms: _255  and  _258
REMARK  106  A    between atoms: _258  and  _259
REMARK  107  A    between atoms: _264  and  _266
REMARK  108  A    between atoms: _266  and  _267
REMARK  109  A    between atoms: _266  and  _269
REMARK  110  A    between atoms: _272  and  _274
REMARK  111  A    between atoms: _274  and  _275
REMARK  112  A    between atoms: _274  and  _277
REMARK  113  A    between atoms: _277  and  _278
REMARK  114  A    between atoms: _281  and  _283
REMARK  115  A    between atoms: _283  and  _284
REMARK  116  A    between atoms: _286  and  _288
REMARK  117  A    between atoms: _288  and  _289
REMARK  118  A    between atoms: _288  and  _291
REMARK  119  A    between atoms: _291  and  _292
REMARK  120  A    between atoms: _295  and  _297
REMARK  121  A    between atoms: _297  and  _298
REMARK  122  A    between atoms: _297  and  _300
REMARK  123  A    between atoms: _300  and  _301
REMARK  124  A    between atoms: _304  and  _306
REMARK  125  A    between atoms: _306  and  _307
REMARK  126  A    between atoms: _306  and  _309
REMARK  127  A    between atoms: _309  and  _310
REMARK  128  A    between atoms: _313  and  _315
REMARK  129  A    between atoms: _315  and  _316
REMARK  130  A    between atoms: _315  and  _318
REMARK  131  A    between atoms: _318  and  _319
REMARK  132  A    between atoms: _324  and  _325
REMARK  133  A    between atoms: _327  and  _329
REMARK  134  A    between atoms: _329  and  _330
REMARK  135  A    between atoms: _329  and  _332
REMARK  136  A    between atoms: _332  and  _333
REMARK  137  A    between atoms: _336  and  _338
REMARK  138  A    between atoms: _338  and  _339
REMARK  139  A    between atoms: _338  and  _341
REMARK  140  A    between atoms: _344  and  _346
REMARK  141  A    between atoms: _346  and  _347
REMARK  142  A    between atoms: _346  and  _349
REMARK  143  A    between atoms: _349  and  _350
REMARK  144  A    between atoms: _353  and  _355
REMARK  145  A    between atoms: _355  and  _356
REMARK  146  A    between atoms: _355  and  _358
REMARK  147  A    between atoms: _358  and  _359
REMARK  148  A    between atoms: _364  and  _366
REMARK  149  A    between atoms: _366  and  _367
REMARK  150  A    between atoms: _366  and  _369
REMARK  151  A    between atoms: _369  and  _370
REMARK  152  A    between atoms: _373  and  _375
REMARK  153  A    between atoms: _375  and  _376
REMARK  154  A    between atoms: _375  and  _378
REMARK  155  A    between atoms: _378  and  _379
REMARK  156  A    between atoms: _379  and  _380
REMARK  157  A    between atoms: _382  and  _384
REMARK  158  A    between atoms: _384  and  _385
REMARK  159  A    between atoms: _387  and  _389
REMARK  160  A    between atoms: _389  and  _390
REMARK  161  A    between atoms: _393  and  _395
REMARK  162  A    between atoms: _395  and  _396
REMARK  163  A    between atoms: _395  and  _398
REMARK  164  A    between atoms: _398  and  _399
REMARK  165  A    between atoms: _402  and  _404
REMARK  166  A    between atoms: _404  and  _405
REMARK  167  A    between atoms: _404  and  _407
REMARK  168  A    between atoms: _407  and  _408
REMARK  169  A    between atoms: _413  and  _415
REMARK  170  A    between atoms: _415  and  _416
REMARK  171  A    between atoms: _418  and  _420
REMARK  172  A    between atoms: _420  and  _421
REMARK  173  A    between atoms: _420  and  _423
REMARK  174  A    between atoms: _423  and  _424
REMARK  175  A    between atoms: _427  and  _429
REMARK  176  A    between atoms: _429  and  _430
REMARK  177  A    between atoms: _429  and  _432
REMARK  178  A    between atoms: _432  and  _433
REMARK  179  A    between atoms: _438  and  _439
REMARK  180  A    between atoms: _441  and  _443
REMARK  181  A    between atoms: _443  and  _444
REMARK  182  A    between atoms: _443  and  _446
REMARK  183  A    between atoms: _446  and  _447
REMARK  184  A    between atoms: _450  and  _452
REMARK  185  A    between atoms: _452  and  _453
REMARK  186  A    between atoms: _452  and  _455
REMARK  187  A    between atoms: _455  and  _456
REMARK  188  A    between atoms: _461  and  _463
REMARK  189  A    between atoms: _463  and  _464
REMARK  190  A    between atoms: _467  and  _469
REMARK  191  A    between atoms: _469  and  _470
REMARK  192  A    between atoms: _469  and  _472
REMARK  193  A    between atoms: _472  and  _473
REMARK  194  A    between atoms: _476  and  _478
REMARK  195  A    between atoms: _478  and  _479
REMARK  196  A    between atoms: _478  and  _481
REMARK  197  A    between atoms: _481  and  _482
REMARK  198  A    between atoms: _485  and  _487
REMARK  199  A    between atoms: _487  and  _488
REMARK  200  A    between atoms: _487  and  _490
REMARK  201  A    between atoms: _490  and  _491
REMARK  202  A    between atoms: _496  and  _498
REMARK  203  A    between atoms: _498  and  _499
REMARK  204  A    between atoms: _498  and  _501
REMARK  205  A    between atoms: _501  and  _502
REMARK  206  A    between atoms: _502  and  _503
REMARK  207  A    between atoms: _503  and  _504
REMARK  208  A    between atoms: _513  and  _515
REMARK  209  A    between atoms: _515  and  _516
REMARK  210  A    between atoms: _515  and  _518
REMARK  211  A    between atoms: _518  and  _519
REMARK  212  A    between atoms: _522  and  _524
REMARK  213  A    between atoms: _524  and  _525
REMARK  214  A    between atoms: _524  and  _527
REMARK  215  A    between atoms: _527  and  _528
REMARK  216  A    between atoms: _531  and  _533
REMARK  217  A    between atoms: _533  and  _534
REMARK  218  A    between atoms: _533  and  _536
REMARK  219  A    between atoms: _536  and  _537
REMARK  220  A    between atoms: _539  and  _541
REMARK  221  A    between atoms: _541  and  _542
REMARK  222  A    between atoms: _541  and  _544
REMARK  223  A    between atoms: _544  and  _545
REMARK  224  A    between atoms: _550  and  _552
REMARK  225  A    between atoms: _552  and  _553
REMARK  226  A    between atoms: _552  and  _555
REMARK  227  A    between atoms: _555  and  _556
REMARK  228  A    between atoms: _559  and  _561
REMARK  229  A    between atoms: _561  and  _562
REMARK  230  A    between atoms: _565  and  _567
REMARK  231  A    between atoms: _567  and  _568
REMARK  232  A    between atoms: _567  and  _570
REMARK  233  A    between atoms: _570  and  _571
REMARK  234  A    between atoms: _571  and  _572
REMARK  235  A    between atoms: _572  and  _573
REMARK  236  A    between atoms: _573  and  _574
REMARK  237  A    between atoms: _578  and  _580
REMARK  238  A    between atoms: _580  and  _581
REMARK  239  A    between atoms: _580  and  _583
REMARK  240  A    between atoms: _583  and  _584
REMARK  241  A    between atoms: _587  and  _589
REMARK  242  A    between atoms: _589  and  _590
REMARK  243  A    between atoms: _589  and  _592
REMARK  244  A    between atoms: _592  and  _593
REMARK  245  A    between atoms: _596  and  _598
REMARK  246  A    between atoms: _598  and  _599
REMARK  247  A    between atoms: _598  and  _601
REMARK  248  A    between atoms: _601  and  _602
REMARK  249  A    between atoms: _605  and  _607
REMARK  250  A    between atoms: _607  and  _608
REMARK  251  A    between atoms: _607  and  _610
REMARK  252  A    between atoms: _610  and  _611
REMARK  253  A    between atoms: _617  and  _619
REMARK  254  A    between atoms: _619  and  _620
REMARK  255  A    between atoms: _622  and  _624
REMARK  256  A    between atoms: _624  and  _625
REMARK  257  A    between atoms: _624  and  _627
REMARK  258  A    between atoms: _627  and  _628
REMARK  259  A    between atoms: _631  and  _633
REMARK  260  A    between atoms: _633  and  _634
REMARK  261  A    between atoms: _633  and  _636
REMARK  262  A    between atoms: _636  and  _637
REMARK                            x       y       z     vdW  Elec       q    Type
REMARK                         _______ _______ _______ _____ _____    ______ ____
ROOT
ATOM      1  O   HOH     1      35.746  22.228  35.992  0.00  0.00    +0.000 OA
ENDROOT
TORSDOF 0
REMARK  Name = ../refined-set-2016/3e93/3e93_pocket.pdb
REMARK  262 active torsions:
REMARK  status: ('A' for Active; 'I' for Inactive)
REMARK    1  A    between atoms: _1  and  _3
REMARK    2  A    between atoms: _3  and  _4
REMARK    3  A    between atoms: _3  and  _6
REMARK    4  A    between atoms: _6  and  _7
REMARK    5  A    between atoms: _17  and  _19
REMARK    6  A    between atoms: _19  and  _20
REMARK    7  A    between atoms: _19  and  _22
REMARK    8  A    between atoms: _22  and  _23
REMARK    9  A    between atoms: _26  and  _27
REMARK   10  A    between atoms: _32  and  _34
REMARK   11  A    between atoms: _34  and  _35
REMARK   12  A    between atoms: _34  and  _37
REMARK   13  A    between atoms: _40  and  _42
REMARK   14  A    between atoms: _42  and  _43
REMARK   15  A    between atoms: _45  and  _47
REMARK   16  A    between atoms: _47  and  _48
REMARK   17  A    between atoms: _47  and  _50
REMARK   18  A    between atoms: _50  and  _51
REMARK   19  A    between atoms: _53  and  _55
REMARK   20  A    between atoms: _55  and  _56
REMARK   21  A    between atoms: _55  and  _58
REMARK   22  A    between atoms: _58  and  _59
REMARK   23  A    between atoms: _61  and  _63
REMARK   24  A    between atoms: _63  and  _64
REMARK   25  A    between atoms: _63  and  _66
REMARK   26  A    between atoms: _69  and  _71
REMARK   27  A    between atoms: _71  and  _72
REMARK   28  A    between atoms: _71  and  _74
REMARK   29  A    between atoms: _76  and  _78
REMARK   30  A    between atoms: _78  and  _79
REMARK   31  A    between atoms: _82  and  _84
REMARK   32  A    between atoms: _84  and  _85
REMARK   33  A    between atoms: _88  and  _90
REMARK   34  A    between atoms: _90  and  _91
REMARK   35  A    between atoms: _90  and  _93
REMARK   36  A    between atoms: _93  and  _94
REMARK   37  A    between atoms: _94  and  _95
REMARK   38  A    between atoms: _95  and  _96
REMARK   39  A    between atoms: _105  and  _107
REMARK   40  A    between atoms: _107  and  _108
REMARK   41  A    between atoms: _107  and  _110
REMARK   42  A    between atoms: _113  and  _115
REMARK   43  A    between atoms: _115  and  _116
REMARK   44  A    between atoms: _119  and  _121
REMARK   45  A    between atoms: _121  and  _122
REMARK   46  A    between atoms: _121  and  _124
REMARK   47  A    between atoms: _127  and  _129
REMARK   48  A    between atoms: _129  and  _130
REMARK   49  A    between atoms: _129  and  _132
REMARK   50  A    between atoms: _132  and  _133
REMARK   51  A    between atoms: _133  and  _134
REMARK   52  A    between atoms: _134  and  _135
REMARK   53  A    between atoms: _135  and  _136
REMARK   54  A    between atoms: _140  and  _142
REMARK   55  A    between atoms: _142  and  _143
REMARK   56  A    between atoms: _142  and  _145
REMARK   57  A    between atoms: _145  and  _146
REMARK   58  A    between atoms: _146  and  _147
REMARK   59  A    between atoms: _147  and  _148
REMARK   60  A    between atoms: _148  and  _149
REMARK   61  A    between atoms: _153  and  _155
REMARK   62  A    between atoms: _155  and  _156
REMARK   63  A    between atoms: _155  and  _158
REMARK   64  A    between atoms: _158  and  _159
REMARK   65  A    between atoms: _162  and  _164
REMARK   66  A    between atoms: _164  and  _165
REMARK   67  A    between atoms: _164  and  _167
REMARK   68  A    between atoms: _167  and  _168
REMARK   69  A    between atoms: _168  and  _169
REMARK   70  A    between atoms: _169  and  _170
REMARK   71  A    between atoms: _179  and  _181
REMARK   72  A    between atoms: _181  and  _182
REMARK   73  A    between atoms: _181  and  _184
REMARK   74  A    between atoms: _184  and  _185
REMARK   75  A    between atoms: _185  and  _186
REMARK   76  A    between atoms: _186  and  _187
REMARK   77  A    between atoms: _196  and  _198
REMARK   78  A    between atoms: _198  and  _199
REMARK   79  A    between atoms: _198  and  _201
REMARK   80  A    between atoms: _201  and  _202
REMARK   81  A    between atoms: _202  and  _203
REMARK   82  A    between atoms: _206  and  _208
REMARK   83  A    between atoms: _208  and  _209
REMARK   84  A    between atoms: _208  and  _211
REMARK   85  A    between atoms: _211  and  _212
REMARK   86  A    between atoms: _215  and  _217
REMARK   87  A    between atoms: _217  and  _218
REMARK   88  A    between atoms: _217  and  _220
REMARK   89  A    between atoms: _220  and  _221
REMARK   90  A    between atoms: _224  and  _226
REMARK   91  A    between atoms: _226  and  _227
REMARK   92  A    between atoms: _226  and  _229
REMARK   93  A    between atoms: _229  and  _230
REMARK   94  A    between atoms: _233  and  _235
REMARK   95  A    between atoms: _235  and  _236
REMARK   96  A    between atoms: _235  and  _238
REMARK   97  A    between atoms: _238  and  _239
REMARK   98  A    between atoms: _239  and  _240
REMARK   99  A    between atoms: _242  and  _244
REMARK  100  A    between atoms: _244  and  _245
REMARK  101  A    between atoms: _244  and  _247
REMARK  102  A    between atoms: _247  and  _248
REMARK  103  A    between atoms: _253  and  _255
REMARK  104  A    between atoms: _255  and  _256
REMARK  105  A    between atoms: _255  and  _258
REMARK  106  A    between atoms: _258  and  _259
REMARK  107  A    between atoms: _264  and  _266
REMARK  108  A    between atoms: _266  and  _267
REMARK  109  A    between atoms: _266  and  _269
REMARK  110  A    between atoms: _272  and  _274
REMARK  111  A    between atoms: _274  and  _275
REMARK  112  A    between atoms: _274  and  _277
REMARK  113  A    between atoms: _277  and  _278
REMARK  114  A    between atoms: _281  and  _283
REMARK  115  A    between atoms: _283  and  _284
REMARK  116  A    between atoms: _286  and  _288
REMARK  117  A    between atoms: _288  and  _289
REMARK  118  A    between atoms: _288  and  _291
REMARK  119  A    between atoms: _291  and  _292
REMARK  120  A    between atoms: _295  and  _297
REMARK  121  A    between atoms: _297  and  _298
REMARK  122  A    between atoms: _297  and  _300
REMARK  123  A    between atoms: _300  and  _301
REMARK  124  A    between atoms: _304  and  _306
REMARK  125  A    between atoms: _306  and  _307
REMARK  126  A    between atoms: _306  and  _309
REMARK  127  A    between atoms: _309  and  _310
REMARK  128  A    between atoms: _313  and  _315
REMARK  129  A    between atoms: _315  and  _316
REMARK  130  A    between atoms: _315  and  _318
REMARK  131  A    between atoms: _318  and  _319
REMARK  132  A    between atoms: _324  and  _325
REMARK  133  A    between atoms: _327  and  _329
REMARK  134  A    between atoms: _329  and  _330
REMARK  135  A    between atoms: _329  and  _332
REMARK  136  A    between atoms: _332  and  _333
REMARK  137  A    between atoms: _336  and  _338
REMARK  138  A    between atoms: _338  and  _339
REMARK  139  A    between atoms: _338  and  _341
REMARK  140  A    between atoms: _344  and  _346
REMARK  141  A    between atoms: _346  and  _347
REMARK  142  A    between atoms: _346  and  _349
REMARK  143  A    between atoms: _349  and  _350
REMARK  144  A    between atoms: _353  and  _355
REMARK  145  A    between atoms: _355  and  _356
REMARK  146  A    between atoms: _355  and  _358
REMARK  147  A    between atoms: _358  and  _359
REMARK  148  A    between atoms: _364  and  _366
REMARK  149  A    between atoms: _366  and  _367
REMARK  150  A    between atoms: _366  and  _369
REMARK  151  A    between atoms: _369  and  _370
REMARK  152  A    between atoms: _373  and  _375
REMARK  153  A    between atoms: _375  and  _376
REMARK  154  A    between atoms: _375  and  _378
REMARK  155  A    between atoms: _378  and  _379
REMARK  156  A    between atoms: _379  and  _380
REMARK  157  A    between atoms: _382  and  _384
REMARK  158  A    between atoms: _384  and  _385
REMARK  159  A    between atoms: _387  and  _389
REMARK  160  A    between atoms: _389  and  _390
REMARK  161  A    between atoms: _393  and  _395
REMARK  162  A    between atoms: _395  and  _396
REMARK  163  A    between atoms: _395  and  _398
REMARK  164  A    between atoms: _398  and  _399
REMARK  165  A    between atoms: _402  and  _404
REMARK  166  A    between atoms: _404  and  _405
REMARK  167  A    between atoms: _404  and  _407
REMARK  168  A    between atoms: _407  and  _408
REMARK  169  A    between atoms: _413  and  _415
REMARK  170  A    between atoms: _415  and  _416
REMARK  171  A    between atoms: _418  and  _420
REMARK  172  A    between atoms: _420  and  _421
REMARK  173  A    between atoms: _420  and  _423
REMARK  174  A    between atoms: _423  and  _424
REMARK  175  A    between atoms: _427  and  _429
REMARK  176  A    between atoms: _429  and  _430
REMARK  177  A    between atoms: _429  and  _432
REMARK  178  A    between atoms: _432  and  _433
REMARK  179  A    between atoms: _438  and  _439
REMARK  180  A    between atoms: _441  and  _443
REMARK  181  A    between atoms: _443  and  _444
REMARK  182  A    between atoms: _443  and  _446
REMARK  183  A    between atoms: _446  and  _447
REMARK  184  A    between atoms: _450  and  _452
REMARK  185  A    between atoms: _452  and  _453
REMARK  186  A    between atoms: _452  and  _455
REMARK  187  A    between atoms: _455  and  _456
REMARK  188  A    between atoms: _461  and  _463
REMARK  189  A    between atoms: _463  and  _464
REMARK  190  A    between atoms: _467  and  _469
REMARK  191  A    between atoms: _469  and  _470
REMARK  192  A    between atoms: _469  and  _472
REMARK  193  A    between atoms: _472  and  _473
REMARK  194  A    between atoms: _476  and  _478
REMARK  195  A    between atoms: _478  and  _479
REMARK  196  A    between atoms: _478  and  _481
REMARK  197  A    between atoms: _481  and  _482
REMARK  198  A    between atoms: _485  and  _487
REMARK  199  A    between atoms: _487  and  _488
REMARK  200  A    between atoms: _487  and  _490
REMARK  201  A    between atoms: _490  and  _491
REMARK  202  A    between atoms: _496  and  _498
REMARK  203  A    between atoms: _498  and  _499
REMARK  204  A    between atoms: _498  and  _501
REMARK  205  A    between atoms: _501  and  _502
REMARK  206  A    between atoms: _502  and  _503
REMARK  207  A    between atoms: _503  and  _504
REMARK  208  A    between atoms: _513  and  _515
REMARK  209  A    between atoms: _515  and  _516
REMARK  210  A    between atoms: _515  and  _518
REMARK  211  A    between atoms: _518  and  _519
REMARK  212  A    between atoms: _522  and  _524
REMARK  213  A    between atoms: _524  and  _525
REMARK  214  A    between atoms: _524  and  _527
REMARK  215  A    between atoms: _527  and  _528
REMARK  216  A    between atoms: _531  and  _533
REMARK  217  A    between atoms: _533  and  _534
REMARK  218  A    between atoms: _533  and  _536
REMARK  219  A    between atoms: _536  and  _537
REMARK  220  A    between atoms: _539  and  _541
REMARK  221  A    between atoms: _541  and  _542
REMARK  222  A    between atoms: _541  and  _544
REMARK  223  A    between atoms: _544  and  _545
REMARK  224  A    between atoms: _550  and  _552
REMARK  225  A    between atoms: _552  and  _553
REMARK  226  A    between atoms: _552  and  _555
REMARK  227  A    between atoms: _555  and  _556
REMARK  228  A    between atoms: _559  and  _561
REMARK  229  A    between atoms: _561  and  _562
REMARK  230  A    between atoms: _565  and  _567
REMARK  231  A    between atoms: _567  and  _568
REMARK  232  A    between atoms: _567  and  _570
REMARK  233  A    between atoms: _570  and  _571
REMARK  234  A    between atoms: _571  and  _572
REMARK  235  A    between atoms: _572  and  _573
REMARK  236  A    between atoms: _573  and  _574
REMARK  237  A    between atoms: _578  and  _580
REMARK  238  A    between atoms: _580  and  _581
REMARK  239  A    between atoms: _580  and  _583
REMARK  240  A    between atoms: _583  and  _584
REMARK  241  A    between atoms: _587  and  _589
REMARK  242  A    between atoms: _589  and  _590
REMARK  243  A    between atoms: _589  and  _592
REMARK  244  A    between atoms: _592  and  _593
REMARK  245  A    between atoms: _596  and  _598
REMARK  246  A    between atoms: _598  and  _599
REMARK  247  A    between atoms: _598  and  _601
REMARK  248  A    between atoms: _601  and  _602
REMARK  249  A    between atoms: _605  and  _607
REMARK  250  A    between atoms: _607  and  _608
REMARK  251  A    between atoms: _607  and  _610
REMARK  252  A    between atoms: _610  and  _611
REMARK  253  A    between atoms: _617  and  _619
REMARK  254  A    between atoms: _619  and  _620
REMARK  255  A    between atoms: _622  and  _624
REMARK  256  A    between atoms: _624  and  _625
REMARK  257  A    between atoms: _624  and  _627
REMARK  258  A    between atoms: _627  and  _628
REMARK  259  A    between atoms: _631  and  _633
REMARK  260  A    between atoms: _633  and  _634
REMARK  261  A    between atoms: _633  and  _636
REMARK  262  A    between atoms: _636  and  _637
REMARK                            x       y       z     vdW  Elec       q    Type
REMARK                         _______ _______ _______ _____ _____    ______ ____
ROOT
ATOM      1  O   HOH     1      47.019  39.713  37.616  0.00  0.00    +0.000 OA
ENDROOT
TORSDOF 0
REMARK  Name = ../refined-set-2016/3e93/3e93_pocket.pdb
REMARK  262 active torsions:
REMARK  status: ('A' for Active; 'I' for Inactive)
REMARK    1  A    between atoms: _1  and  _3
REMARK    2  A    between atoms: _3  and  _4
REMARK    3  A    between atoms: _3  and  _6
REMARK    4  A    between atoms: _6  and  _7
REMARK    5  A    between atoms: _17  and  _19
REMARK    6  A    between atoms: _19  and  _20
REMARK    7  A    between atoms: _19  and  _22
REMARK    8  A    between atoms: _22  and  _23
REMARK    9  A    between atoms: _26  and  _27
REMARK   10  A    between atoms: _32  and  _34
REMARK   11  A    between atoms: _34  and  _35
REMARK   12  A    between atoms: _34  and  _37
REMARK   13  A    between atoms: _40  and  _42
REMARK   14  A    between atoms: _42  and  _43
REMARK   15  A    between atoms: _45  and  _47
REMARK   16  A    between atoms: _47  and  _48
REMARK   17  A    between atoms: _47  and  _50
REMARK   18  A    between atoms: _50  and  _51
REMARK   19  A    between atoms: _53  and  _55
REMARK   20  A    between atoms: _55  and  _56
REMARK   21  A    between atoms: _55  and  _58
REMARK   22  A    between atoms: _58  and  _59
REMARK   23  A    between atoms: _61  and  _63
REMARK   24  A    between atoms: _63  and  _64
REMARK   25  A    between atoms: _63  and  _66
REMARK   26  A    between atoms: _69  and  _71
REMARK   27  A    between atoms: _71  and  _72
REMARK   28  A    between atoms: _71  and  _74
REMARK   29  A    between atoms: _76  and  _78
REMARK   30  A    between atoms: _78  and  _79
REMARK   31  A    between atoms: _82  and  _84
REMARK   32  A    between atoms: _84  and  _85
REMARK   33  A    between atoms: _88  and  _90
REMARK   34  A    between atoms: _90  and  _91
REMARK   35  A    between atoms: _90  and  _93
REMARK   36  A    between atoms: _93  and  _94
REMARK   37  A    between atoms: _94  and  _95
REMARK   38  A    between atoms: _95  and  _96
REMARK   39  A    between atoms: _105  and  _107
REMARK   40  A    between atoms: _107  and  _108
REMARK   41  A    between atoms: _107  and  _110
REMARK   42  A    between atoms: _113  and  _115
REMARK   43  A    between atoms: _115  and  _116
REMARK   44  A    between atoms: _119  and  _121
REMARK   45  A    between atoms: _121  and  _122
REMARK   46  A    between atoms: _121  and  _124
REMARK   47  A    between atoms: _127  and  _129
REMARK   48  A    between atoms: _129  and  _130
REMARK   49  A    between atoms: _129  and  _132
REMARK   50  A    between atoms: _132  and  _133
REMARK   51  A    between atoms: _133  and  _134
REMARK   52  A    between atoms: _134  and  _135
REMARK   53  A    between atoms: _135  and  _136
REMARK   54  A    between atoms: _140  and  _142
REMARK   55  A    between atoms: _142  and  _143
REMARK   56  A    between atoms: _142  and  _145
REMARK   57  A    between atoms: _145  and  _146
REMARK   58  A    between atoms: _146  and  _147
REMARK   59  A    between atoms: _147  and  _148
REMARK   60  A    between atoms: _148  and  _149
REMARK   61  A    between atoms: _153  and  _155
REMARK   62  A    between atoms: _155  and  _156
REMARK   63  A    between atoms: _155  and  _158
REMARK   64  A    between atoms: _158  and  _159
REMARK   65  A    between atoms: _162  and  _164
REMARK   66  A    between atoms: _164  and  _165
REMARK   67  A    between atoms: _164  and  _167
REMARK   68  A    between atoms: _167  and  _168
REMARK   69  A    between atoms: _168  and  _169
REMARK   70  A    between atoms: _169  and  _170
REMARK   71  A    between atoms: _179  and  _181
REMARK   72  A    between atoms: _181  and  _182
REMARK   73  A    between atoms: _181  and  _184
REMARK   74  A    between atoms: _184  and  _185
REMARK   75  A    between atoms: _185  and  _186
REMARK   76  A    between atoms: _186  and  _187
REMARK   77  A    between atoms: _196  and  _198
REMARK   78  A    between atoms: _198  and  _199
REMARK   79  A    between atoms: _198  and  _201
REMARK   80  A    between atoms: _201  and  _202
REMARK   81  A    between atoms: _202  and  _203
REMARK   82  A    between atoms: _206  and  _208
REMARK   83  A    between atoms: _208  and  _209
REMARK   84  A    between atoms: _208  and  _211
REMARK   85  A    between atoms: _211  and  _212
REMARK   86  A    between atoms: _215  and  _217
REMARK   87  A    between atoms: _217  and  _218
REMARK   88  A    between atoms: _217  and  _220
REMARK   89  A    between atoms: _220  and  _221
REMARK   90  A    between atoms: _224  and  _226
REMARK   91  A    between atoms: _226  and  _227
REMARK   92  A    between atoms: _226  and  _229
REMARK   93  A    between atoms: _229  and  _230
REMARK   94  A    between atoms: _233  and  _235
REMARK   95  A    between atoms: _235  and  _236
REMARK   96  A    between atoms: _235  and  _238
REMARK   97  A    between atoms: _238  and  _239
REMARK   98  A    between atoms: _239  and  _240
REMARK   99  A    between atoms: _242  and  _244
REMARK  100  A    between atoms: _244  and  _245
REMARK  101  A    between atoms: _244  and  _247
REMARK  102  A    between atoms: _247  and  _248
REMARK  103  A    between atoms: _253  and  _255
REMARK  104  A    between atoms: _255  and  _256
REMARK  105  A    between atoms: _255  and  _258
REMARK  106  A    between atoms: _258  and  _259
REMARK  107  A    between atoms: _264  and  _266
REMARK  108  A    between atoms: _266  and  _267
REMARK  109  A    between atoms: _266  and  _269
REMARK  110  A    between atoms: _272  and  _274
REMARK  111  A    between atoms: _274  and  _275
REMARK  112  A    between atoms: _274  and  _277
REMARK  113  A    between atoms: _277  and  _278
REMARK  114  A    between atoms: _281  and  _283
REMARK  115  A    between atoms: _283  and  _284
REMARK  116  A    between atoms: _286  and  _288
REMARK  117  A    between atoms: _288  and  _289
REMARK  118  A    between atoms: _288  and  _291
REMARK  119  A    between atoms: _291  and  _292
REMARK  120  A    between atoms: _295  and  _297
REMARK  121  A    between atoms: _297  and  _298
REMARK  122  A    between atoms: _297  and  _300
REMARK  123  A    between atoms: _300  and  _301
REMARK  124  A    between atoms: _304  and  _306
REMARK  125  A    between atoms: _306  and  _307
REMARK  126  A    between atoms: _306  and  _309
REMARK  127  A    between atoms: _309  and  _310
REMARK  128  A    between atoms: _313  and  _315
REMARK  129  A    between atoms: _315  and  _316
REMARK  130  A    between atoms: _315  and  _318
REMARK  131  A    between atoms: _318  and  _319
REMARK  132  A    between atoms: _324  and  _325
REMARK  133  A    between atoms: _327  and  _329
REMARK  134  A    between atoms: _329  and  _330
REMARK  135  A    between atoms: _329  and  _332
REMARK  136  A    between atoms: _332  and  _333
REMARK  137  A    between atoms: _336  and  _338
REMARK  138  A    between atoms: _338  and  _339
REMARK  139  A    between atoms: _338  and  _341
REMARK  140  A    between atoms: _344  and  _346
REMARK  141  A    between atoms: _346  and  _347
REMARK  142  A    between atoms: _346  and  _349
REMARK  143  A    between atoms: _349  and  _350
REMARK  144  A    between atoms: _353  and  _355
REMARK  145  A    between atoms: _355  and  _356
REMARK  146  A    between atoms: _355  and  _358
REMARK  147  A    between atoms: _358  and  _359
REMARK  148  A    between atoms: _364  and  _366
REMARK  149  A    between atoms: _366  and  _367
REMARK  150  A    between atoms: _366  and  _369
REMARK  151  A    between atoms: _369  and  _370
REMARK  152  A    between atoms: _373  and  _375
REMARK  153  A    between atoms: _375  and  _376
REMARK  154  A    between atoms: _375  and  _378
REMARK  155  A    between atoms: _378  and  _379
REMARK  156  A    between atoms: _379  and  _380
REMARK  157  A    between atoms: _382  and  _384
REMARK  158  A    between atoms: _384  and  _385
REMARK  159  A    between atoms: _387  and  _389
REMARK  160  A    between atoms: _389  and  _390
REMARK  161  A    between atoms: _393  and  _395
REMARK  162  A    between atoms: _395  and  _396
REMARK  163  A    between atoms: _395  and  _398
REMARK  164  A    between atoms: _398  and  _399
REMARK  165  A    between atoms: _402  and  _404
REMARK  166  A    between atoms: _404  and  _405
REMARK  167  A    between atoms: _404  and  _407
REMARK  168  A    between atoms: _407  and  _408
REMARK  169  A    between atoms: _413  and  _415
REMARK  170  A    between atoms: _415  and  _416
REMARK  171  A    between atoms: _418  and  _420
REMARK  172  A    between atoms: _420  and  _421
REMARK  173  A    between atoms: _420  and  _423
REMARK  174  A    between atoms: _423  and  _424
REMARK  175  A    between atoms: _427  and  _429
REMARK  176  A    between atoms: _429  and  _430
REMARK  177  A    between atoms: _429  and  _432
REMARK  178  A    between atoms: _432  and  _433
REMARK  179  A    between atoms: _438  and  _439
REMARK  180  A    between atoms: _441  and  _443
REMARK  181  A    between atoms: _443  and  _444
REMARK  182  A    between atoms: _443  and  _446
REMARK  183  A    between atoms: _446  and  _447
REMARK  184  A    between atoms: _450  and  _452
REMARK  185  A    between atoms: _452  and  _453
REMARK  186  A    between atoms: _452  and  _455
REMARK  187  A    between atoms: _455  and  _456
REMARK  188  A    between atoms: _461  and  _463
REMARK  189  A    between atoms: _463  and  _464
REMARK  190  A    between atoms: _467  and  _469
REMARK  191  A    between atoms: _469  and  _470
REMARK  192  A    between atoms: _469  and  _472
REMARK  193  A    between atoms: _472  and  _473
REMARK  194  A    between atoms: _476  and  _478
REMARK  195  A    between atoms: _478  and  _479
REMARK  196  A    between atoms: _478  and  _481
REMARK  197  A    between atoms: _481  and  _482
REMARK  198  A    between atoms: _485  and  _487
REMARK  199  A    between atoms: _487  and  _488
REMARK  200  A    between atoms: _487  and  _490
REMARK  201  A    between atoms: _490  and  _491
REMARK  202  A    between atoms: _496  and  _498
REMARK  203  A    between atoms: _498  and  _499
REMARK  204  A    between atoms: _498  and  _501
REMARK  205  A    between atoms: _501  and  _502
REMARK  206  A    between atoms: _502  and  _503
REMARK  207  A    between atoms: _503  and  _504
REMARK  208  A    between atoms: _513  and  _515
REMARK  209  A    between atoms: _515  and  _516
REMARK  210  A    between atoms: _515  and  _518
REMARK  211  A    between atoms: _518  and  _519
REMARK  212  A    between atoms: _522  and  _524
REMARK  213  A    between atoms: _524  and  _525
REMARK  214  A    between atoms: _524  and  _527
REMARK  215  A    between atoms: _527  and  _528
REMARK  216  A    between atoms: _531  and  _533
REMARK  217  A    between atoms: _533  and  _534
REMARK  218  A    between atoms: _533  and  _536
REMARK  219  A    between atoms: _536  and  _537
REMARK  220  A    between atoms: _539  and  _541
REMARK  221  A    between atoms: _541  and  _542
REMARK  222  A    between atoms: _541  and  _544
REMARK  223  A    between atoms: _544  and  _545
REMARK  224  A    between atoms: _550  and  _552
REMARK  225  A    between atoms: _552  and  _553
REMARK  226  A    between atoms: _552  and  _555
REMARK  227  A    between atoms: _555  and  _556
REMARK  228  A    between atoms: _559  and  _561
REMARK  229  A    between atoms: _561  and  _562
REMARK  230  A    between atoms: _565  and  _567
REMARK  231  A    between atoms: _567  and  _568
REMARK  232  A    between atoms: _567  and  _570
REMARK  233  A    between atoms: _570  and  _571
REMARK  234  A    between atoms: _571  and  _572
REMARK  235  A    between atoms: _572  and  _573
REMARK  236  A    between atoms: _573  and  _574
REMARK  237  A    between atoms: _578  and  _580
REMARK  238  A    between atoms: _580  and  _581
REMARK  239  A    between atoms: _580  and  _583
REMARK  240  A    between atoms: _583  and  _584
REMARK  241  A    between atoms: _587  and  _589
REMARK  242  A    between atoms: _589  and  _590
REMARK  243  A    between atoms: _589  and  _592
REMARK  244  A    between atoms: _592  and  _593
REMARK  245  A    between atoms: _596  and  _598
REMARK  246  A    between atoms: _598  and  _599
REMARK  247  A    between atoms: _598  and  _601
REMARK  248  A    between atoms: _601  and  _602
REMARK  249  A    between atoms: _605  and  _607
REMARK  250  A    between atoms: _607  and  _608
REMARK  251  A    between atoms: _607  and  _610
REMARK  252  A    between atoms: _610  and  _611
REMARK  253  A    between atoms: _617  and  _619
REMARK  254  A    between atoms: _619  and  _620
REMARK  255  A    between atoms: _622  and  _624
REMARK  256  A    between atoms: _624  and  _625
REMARK  257  A    between atoms: _624  and  _627
REMARK  258  A    between atoms: _627  and  _628
REMARK  259  A    between atoms: _631  and  _633
REMARK  260  A    between atoms: _633  and  _634
REMARK  261  A    between atoms: _633  and  _636
REMARK  262  A    between atoms: _636  and  _637
REMARK                            x       y       z     vdW  Elec       q    Type
REMARK                         _______ _______ _______ _____ _____    ______ ____
ROOT
ATOM      1  O   HOH     1      51.030  30.693  34.062  0.00  0.00    +0.000 OA
ENDROOT
TORSDOF 0
REMARK  Name = ../refined-set-2016/3e93/3e93_pocket.pdb
REMARK  262 active torsions:
REMARK  status: ('A' for Active; 'I' for Inactive)
REMARK    1  A    between atoms: _1  and  _3
REMARK    2  A    between atoms: _3  and  _4
REMARK    3  A    between atoms: _3  and  _6
REMARK    4  A    between atoms: _6  and  _7
REMARK    5  A    between atoms: _17  and  _19
REMARK    6  A    between atoms: _19  and  _20
REMARK    7  A    between atoms: _19  and  _22
REMARK    8  A    between atoms: _22  and  _23
REMARK    9  A    between atoms: _26  and  _27
REMARK   10  A    between atoms: _32  and  _34
REMARK   11  A    between atoms: _34  and  _35
REMARK   12  A    between atoms: _34  and  _37
REMARK   13  A    between atoms: _40  and  _42
REMARK   14  A    between atoms: _42  and  _43
REMARK   15  A    between atoms: _45  and  _47
REMARK   16  A    between atoms: _47  and  _48
REMARK   17  A    between atoms: _47  and  _50
REMARK   18  A    between atoms: _50  and  _51
REMARK   19  A    between atoms: _53  and  _55
REMARK   20  A    between atoms: _55  and  _56
REMARK   21  A    between atoms: _55  and  _58
REMARK   22  A    between atoms: _58  and  _59
REMARK   23  A    between atoms: _61  and  _63
REMARK   24  A    between atoms: _63  and  _64
REMARK   25  A    between atoms: _63  and  _66
REMARK   26  A    between atoms: _69  and  _71
REMARK   27  A    between atoms: _71  and  _72
REMARK   28  A    between atoms: _71  and  _74
REMARK   29  A    between atoms: _76  and  _78
REMARK   30  A    between atoms: _78  and  _79
REMARK   31  A    between atoms: _82  and  _84
REMARK   32  A    between atoms: _84  and  _85
REMARK   33  A    between atoms: _88  and  _90
REMARK   34  A    between atoms: _90  and  _91
REMARK   35  A    between atoms: _90  and  _93
REMARK   36  A    between atoms: _93  and  _94
REMARK   37  A    between atoms: _94  and  _95
REMARK   38  A    between atoms: _95  and  _96
REMARK   39  A    between atoms: _105  and  _107
REMARK   40  A    between atoms: _107  and  _108
REMARK   41  A    between atoms: _107  and  _110
REMARK   42  A    between atoms: _113  and  _115
REMARK   43  A    between atoms: _115  and  _116
REMARK   44  A    between atoms: _119  and  _121
REMARK   45  A    between atoms: _121  and  _122
REMARK   46  A    between atoms: _121  and  _124
REMARK   47  A    between atoms: _127  and  _129
REMARK   48  A    between atoms: _129  and  _130
REMARK   49  A    between atoms: _129  and  _132
REMARK   50  A    between atoms: _132  and  _133
REMARK   51  A    between atoms: _133  and  _134
REMARK   52  A    between atoms: _134  and  _135
REMARK   53  A    between atoms: _135  and  _136
REMARK   54  A    between atoms: _140  and  _142
REMARK   55  A    between atoms: _142  and  _143
REMARK   56  A    between atoms: _142  and  _145
REMARK   57  A    between atoms: _145  and  _146
REMARK   58  A    between atoms: _146  and  _147
REMARK   59  A    between atoms: _147  and  _148
REMARK   60  A    between atoms: _148  and  _149
REMARK   61  A    between atoms: _153  and  _155
REMARK   62  A    between atoms: _155  and  _156
REMARK   63  A    between atoms: _155  and  _158
REMARK   64  A    between atoms: _158  and  _159
REMARK   65  A    between atoms: _162  and  _164
REMARK   66  A    between atoms: _164  and  _165
REMARK   67  A    between atoms: _164  and  _167
REMARK   68  A    between atoms: _167  and  _168
REMARK   69  A    between atoms: _168  and  _169
REMARK   70  A    between atoms: _169  and  _170
REMARK   71  A    between atoms: _179  and  _181
REMARK   72  A    between atoms: _181  and  _182
REMARK   73  A    between atoms: _181  and  _184
REMARK   74  A    between atoms: _184  and  _185
REMARK   75  A    between atoms: _185  and  _186
REMARK   76  A    between atoms: _186  and  _187
REMARK   77  A    between atoms: _196  and  _198
REMARK   78  A    between atoms: _198  and  _199
REMARK   79  A    between atoms: _198  and  _201
REMARK   80  A    between atoms: _201  and  _202
REMARK   81  A    between atoms: _202  and  _203
REMARK   82  A    between atoms: _206  and  _208
REMARK   83  A    between atoms: _208  and  _209
REMARK   84  A    between atoms: _208  and  _211
REMARK   85  A    between atoms: _211  and  _212
REMARK   86  A    between atoms: _215  and  _217
REMARK   87  A    between atoms: _217  and  _218
REMARK   88  A    between atoms: _217  and  _220
REMARK   89  A    between atoms: _220  and  _221
REMARK   90  A    between atoms: _224  and  _226
REMARK   91  A    between atoms: _226  and  _227
REMARK   92  A    between atoms: _226  and  _229
REMARK   93  A    between atoms: _229  and  _230
REMARK   94  A    between atoms: _233  and  _235
REMARK   95  A    between atoms: _235  and  _236
REMARK   96  A    between atoms: _235  and  _238
REMARK   97  A    between atoms: _238  and  _239
REMARK   98  A    between atoms: _239  and  _240
REMARK   99  A    between atoms: _242  and  _244
REMARK  100  A    between atoms: _244  and  _245
REMARK  101  A    between atoms: _244  and  _247
REMARK  102  A    between atoms: _247  and  _248
REMARK  103  A    between atoms: _253  and  _255
REMARK  104  A    between atoms: _255  and  _256
REMARK  105  A    between atoms: _255  and  _258
REMARK  106  A    between atoms: _258  and  _259
REMARK  107  A    between atoms: _264  and  _266
REMARK  108  A    between atoms: _266  and  _267
REMARK  109  A    between atoms: _266  and  _269
REMARK  110  A    between atoms: _272  and  _274
REMARK  111  A    between atoms: _274  and  _275
REMARK  112  A    between atoms: _274  and  _277
REMARK  113  A    between atoms: _277  and  _278
REMARK  114  A    between atoms: _281  and  _283
REMARK  115  A    between atoms: _283  and  _284
REMARK  116  A    between atoms: _286  and  _288
REMARK  117  A    between atoms: _288  and  _289
REMARK  118  A    between atoms: _288  and  _291
REMARK  119  A    between atoms: _291  and  _292
REMARK  120  A    between atoms: _295  and  _297
REMARK  121  A    between atoms: _297  and  _298
REMARK  122  A    between atoms: _297  and  _300
REMARK  123  A    between atoms: _300  and  _301
REMARK  124  A    between atoms: _304  and  _306
REMARK  125  A    between atoms: _306  and  _307
REMARK  126  A    between atoms: _306  and  _309
REMARK  127  A    between atoms: _309  and  _310
REMARK  128  A    between atoms: _313  and  _315
REMARK  129  A    between atoms: _315  and  _316
REMARK  130  A    between atoms: _315  and  _318
REMARK  131  A    between atoms: _318  and  _319
REMARK  132  A    between atoms: _324  and  _325
REMARK  133  A    between atoms: _327  and  _329
REMARK  134  A    between atoms: _329  and  _330
REMARK  135  A    between atoms: _329  and  _332
REMARK  136  A    between atoms: _332  and  _333
REMARK  137  A    between atoms: _336  and  _338
REMARK  138  A    between atoms: _338  and  _339
REMARK  139  A    between atoms: _338  and  _341
REMARK  140  A    between atoms: _344  and  _346
REMARK  141  A    between atoms: _346  and  _347
REMARK  142  A    between atoms: _346  and  _349
REMARK  143  A    between atoms: _349  and  _350
REMARK  144  A    between atoms: _353  and  _355
REMARK  145  A    between atoms: _355  and  _356
REMARK  146  A    between atoms: _355  and  _358
REMARK  147  A    between atoms: _358  and  _359
REMARK  148  A    between atoms: _364  and  _366
REMARK  149  A    between atoms: _366  and  _367
REMARK  150  A    between atoms: _366  and  _369
REMARK  151  A    between atoms: _369  and  _370
REMARK  152  A    between atoms: _373  and  _375
REMARK  153  A    between atoms: _375  and  _376
REMARK  154  A    between atoms: _375  and  _378
REMARK  155  A    between atoms: _378  and  _379
REMARK  156  A    between atoms: _379  and  _380
REMARK  157  A    between atoms: _382  and  _384
REMARK  158  A    between atoms: _384  and  _385
REMARK  159  A    between atoms: _387  and  _389
REMARK  160  A    between atoms: _389  and  _390
REMARK  161  A    between atoms: _393  and  _395
REMARK  162  A    between atoms: _395  and  _396
REMARK  163  A    between atoms: _395  and  _398
REMARK  164  A    between atoms: _398  and  _399
REMARK  165  A    between atoms: _402  and  _404
REMARK  166  A    between atoms: _404  and  _405
REMARK  167  A    between atoms: _404  and  _407
REMARK  168  A    between atoms: _407  and  _408
REMARK  169  A    between atoms: _413  and  _415
REMARK  170  A    between atoms: _415  and  _416
REMARK  171  A    between atoms: _418  and  _420
REMARK  172  A    between atoms: _420  and  _421
REMARK  173  A    between atoms: _420  and  _423
REMARK  174  A    between atoms: _423  and  _424
REMARK  175  A    between atoms: _427  and  _429
REMARK  176  A    between atoms: _429  and  _430
REMARK  177  A    between atoms: _429  and  _432
REMARK  178  A    between atoms: _432  and  _433
REMARK  179  A    between atoms: _438  and  _439
REMARK  180  A    between atoms: _441  and  _443
REMARK  181  A    between atoms: _443  and  _444
REMARK  182  A    between atoms: _443  and  _446
REMARK  183  A    between atoms: _446  and  _447
REMARK  184  A    between atoms: _450  and  _452
REMARK  185  A    between atoms: _452  and  _453
REMARK  186  A    between atoms: _452  and  _455
REMARK  187  A    between atoms: _455  and  _456
REMARK  188  A    between atoms: _461  and  _463
REMARK  189  A    between atoms: _463  and  _464
REMARK  190  A    between atoms: _467  and  _469
REMARK  191  A    between atoms: _469  and  _470
REMARK  192  A    between atoms: _469  and  _472
REMARK  193  A    between atoms: _472  and  _473
REMARK  194  A    between atoms: _476  and  _478
REMARK  195  A    between atoms: _478  and  _479
REMARK  196  A    between atoms: _478  and  _481
REMARK  197  A    between atoms: _481  and  _482
REMARK  198  A    between atoms: _485  and  _487
REMARK  199  A    between atoms: _487  and  _488
REMARK  200  A    between atoms: _487  and  _490
REMARK  201  A    between atoms: _490  and  _491
REMARK  202  A    between atoms: _496  and  _498
REMARK  203  A    between atoms: _498  and  _499
REMARK  204  A    between atoms: _498  and  _501
REMARK  205  A    between atoms: _501  and  _502
REMARK  206  A    between atoms: _502  and  _503
REMARK  207  A    between atoms: _503  and  _504
REMARK  208  A    between atoms: _513  and  _515
REMARK  209  A    between atoms: _515  and  _516
REMARK  210  A    between atoms: _515  and  _518
REMARK  211  A    between atoms: _518  and  _519
REMARK  212  A    between atoms: _522  and  _524
REMARK  213  A    between atoms: _524  and  _525
REMARK  214  A    between atoms: _524  and  _527
REMARK  215  A    between atoms: _527  and  _528
REMARK  216  A    between atoms: _531  and  _533
REMARK  217  A    between atoms: _533  and  _534
REMARK  218  A    between atoms: _533  and  _536
REMARK  219  A    between atoms: _536  and  _537
REMARK  220  A    between atoms: _539  and  _541
REMARK  221  A    between atoms: _541  and  _542
REMARK  222  A    between atoms: _541  and  _544
REMARK  223  A    between atoms: _544  and  _545
REMARK  224  A    between atoms: _550  and  _552
REMARK  225  A    between atoms: _552  and  _553
REMARK  226  A    between atoms: _552  and  _555
REMARK  227  A    between atoms: _555  and  _556
REMARK  228  A    between atoms: _559  and  _561
REMARK  229  A    between atoms: _561  and  _562
REMARK  230  A    between atoms: _565  and  _567
REMARK  231  A    between atoms: _567  and  _568
REMARK  232  A    between atoms: _567  and  _570
REMARK  233  A    between atoms: _570  and  _571
REMARK  234  A    between atoms: _571  and  _572
REMARK  235  A    between atoms: _572  and  _573
REMARK  236  A    between atoms: _573  and  _574
REMARK  237  A    between atoms: _578  and  _580
REMARK  238  A    between atoms: _580  and  _581
REMARK  239  A    between atoms: _580  and  _583
REMARK  240  A    between atoms: _583  and  _584
REMARK  241  A    between atoms: _587  and  _589
REMARK  242  A    between atoms: _589  and  _590
REMARK  243  A    between atoms: _589  and  _592
REMARK  244  A    between atoms: _592  and  _593
REMARK  245  A    between atoms: _596  and  _598
REMARK  246  A    between atoms: _598  and  _599
REMARK  247  A    between atoms: _598  and  _601
REMARK  248  A    between atoms: _601  and  _602
REMARK  249  A    between atoms: _605  and  _607
REMARK  250  A    between atoms: _607  and  _608
REMARK  251  A    between atoms: _607  and  _610
REMARK  252  A    between atoms: _610  and  _611
REMARK  253  A    between atoms: _617  and  _619
REMARK  254  A    between atoms: _619  and  _620
REMARK  255  A    between atoms: _622  and  _624
REMARK  256  A    between atoms: _624  and  _625
REMARK  257  A    between atoms: _624  and  _627
REMARK  258  A    between atoms: _627  and  _628
REMARK  259  A    between atoms: _631  and  _633
REMARK  260  A    between atoms: _633  and  _634
REMARK  261  A    between atoms: _633  and  _636
REMARK  262  A    between atoms: _636  and  _637
REMARK                            x       y       z     vdW  Elec       q    Type
REMARK                         _______ _______ _______ _____ _____    ______ ____
ROOT
ATOM      1  O   HOH     1      37.041  22.370  40.535  0.00  0.00    +0.000 OA
ENDROOT
TORSDOF 0
REMARK  Name = ../refined-set-2016/3e93/3e93_pocket.pdb
REMARK  262 active torsions:
REMARK  status: ('A' for Active; 'I' for Inactive)
REMARK    1  A    between atoms: _1  and  _3
REMARK    2  A    between atoms: _3  and  _4
REMARK    3  A    between atoms: _3  and  _6
REMARK    4  A    between atoms: _6  and  _7
REMARK    5  A    between atoms: _17  and  _19
REMARK    6  A    between atoms: _19  and  _20
REMARK    7  A    between atoms: _19  and  _22
REMARK    8  A    between atoms: _22  and  _23
REMARK    9  A    between atoms: _26  and  _27
REMARK   10  A    between atoms: _32  and  _34
REMARK   11  A    between atoms: _34  and  _35
REMARK   12  A    between atoms: _34  and  _37
REMARK   13  A    between atoms: _40  and  _42
REMARK   14  A    between atoms: _42  and  _43
REMARK   15  A    between atoms: _45  and  _47
REMARK   16  A    between atoms: _47  and  _48
REMARK   17  A    between atoms: _47  and  _50
REMARK   18  A    between atoms: _50  and  _51
REMARK   19  A    between atoms: _53  and  _55
REMARK   20  A    between atoms: _55  and  _56
REMARK   21  A    between atoms: _55  and  _58
REMARK   22  A    between atoms: _58  and  _59
REMARK   23  A    between atoms: _61  and  _63
REMARK   24  A    between atoms: _63  and  _64
REMARK   25  A    between atoms: _63  and  _66
REMARK   26  A    between atoms: _69  and  _71
REMARK   27  A    between atoms: _71  and  _72
REMARK   28  A    between atoms: _71  and  _74
REMARK   29  A    between atoms: _76  and  _78
REMARK   30  A    between atoms: _78  and  _79
REMARK   31  A    between atoms: _82  and  _84
REMARK   32  A    between atoms: _84  and  _85
REMARK   33  A    between atoms: _88  and  _90
REMARK   34  A    between atoms: _90  and  _91
REMARK   35  A    between atoms: _90  and  _93
REMARK   36  A    between atoms: _93  and  _94
REMARK   37  A    between atoms: _94  and  _95
REMARK   38  A    between atoms: _95  and  _96
REMARK   39  A    between atoms: _105  and  _107
REMARK   40  A    between atoms: _107  and  _108
REMARK   41  A    between atoms: _107  and  _110
REMARK   42  A    between atoms: _113  and  _115
REMARK   43  A    between atoms: _115  and  _116
REMARK   44  A    between atoms: _119  and  _121
REMARK   45  A    between atoms: _121  and  _122
REMARK   46  A    between atoms: _121  and  _124
REMARK   47  A    between atoms: _127  and  _129
REMARK   48  A    between atoms: _129  and  _130
REMARK   49  A    between atoms: _129  and  _132
REMARK   50  A    between atoms: _132  and  _133
REMARK   51  A    between atoms: _133  and  _134
REMARK   52  A    between atoms: _134  and  _135
REMARK   53  A    between atoms: _135  and  _136
REMARK   54  A    between atoms: _140  and  _142
REMARK   55  A    between atoms: _142  and  _143
REMARK   56  A    between atoms: _142  and  _145
REMARK   57  A    between atoms: _145  and  _146
REMARK   58  A    between atoms: _146  and  _147
REMARK   59  A    between atoms: _147  and  _148
REMARK   60  A    between atoms: _148  and  _149
REMARK   61  A    between atoms: _153  and  _155
REMARK   62  A    between atoms: _155  and  _156
REMARK   63  A    between atoms: _155  and  _158
REMARK   64  A    between atoms: _158  and  _159
REMARK   65  A    between atoms: _162  and  _164
REMARK   66  A    between atoms: _164  and  _165
REMARK   67  A    between atoms: _164  and  _167
REMARK   68  A    between atoms: _167  and  _168
REMARK   69  A    between atoms: _168  and  _169
REMARK   70  A    between atoms: _169  and  _170
REMARK   71  A    between atoms: _179  and  _181
REMARK   72  A    between atoms: _181  and  _182
REMARK   73  A    between atoms: _181  and  _184
REMARK   74  A    between atoms: _184  and  _185
REMARK   75  A    between atoms: _185  and  _186
REMARK   76  A    between atoms: _186  and  _187
REMARK   77  A    between atoms: _196  and  _198
REMARK   78  A    between atoms: _198  and  _199
REMARK   79  A    between atoms: _198  and  _201
REMARK   80  A    between atoms: _201  and  _202
REMARK   81  A    between atoms: _202  and  _203
REMARK   82  A    between atoms: _206  and  _208
REMARK   83  A    between atoms: _208  and  _209
REMARK   84  A    between atoms: _208  and  _211
REMARK   85  A    between atoms: _211  and  _212
REMARK   86  A    between atoms: _215  and  _217
REMARK   87  A    between atoms: _217  and  _218
REMARK   88  A    between atoms: _217  and  _220
REMARK   89  A    between atoms: _220  and  _221
REMARK   90  A    between atoms: _224  and  _226
REMARK   91  A    between atoms: _226  and  _227
REMARK   92  A    between atoms: _226  and  _229
REMARK   93  A    between atoms: _229  and  _230
REMARK   94  A    between atoms: _233  and  _235
REMARK   95  A    between atoms: _235  and  _236
REMARK   96  A    between atoms: _235  and  _238
REMARK   97  A    between atoms: _238  and  _239
REMARK   98  A    between atoms: _239  and  _240
REMARK   99  A    between atoms: _242  and  _244
REMARK  100  A    between atoms: _244  and  _245
REMARK  101  A    between atoms: _244  and  _247
REMARK  102  A    between atoms: _247  and  _248
REMARK  103  A    between atoms: _253  and  _255
REMARK  104  A    between atoms: _255  and  _256
REMARK  105  A    between atoms: _255  and  _258
REMARK  106  A    between atoms: _258  and  _259
REMARK  107  A    between atoms: _264  and  _266
REMARK  108  A    between atoms: _266  and  _267
REMARK  109  A    between atoms: _266  and  _269
REMARK  110  A    between atoms: _272  and  _274
REMARK  111  A    between atoms: _274  and  _275
REMARK  112  A    between atoms: _274  and  _277
REMARK  113  A    between atoms: _277  and  _278
REMARK  114  A    between atoms: _281  and  _283
REMARK  115  A    between atoms: _283  and  _284
REMARK  116  A    between atoms: _286  and  _288
REMARK  117  A    between atoms: _288  and  _289
REMARK  118  A    between atoms: _288  and  _291
REMARK  119  A    between atoms: _291  and  _292
REMARK  120  A    between atoms: _295  and  _297
REMARK  121  A    between atoms: _297  and  _298
REMARK  122  A    between atoms: _297  and  _300
REMARK  123  A    between atoms: _300  and  _301
REMARK  124  A    between atoms: _304  and  _306
REMARK  125  A    between atoms: _306  and  _307
REMARK  126  A    between atoms: _306  and  _309
REMARK  127  A    between atoms: _309  and  _310
REMARK  128  A    between atoms: _313  and  _315
REMARK  129  A    between atoms: _315  and  _316
REMARK  130  A    between atoms: _315  and  _318
REMARK  131  A    between atoms: _318  and  _319
REMARK  132  A    between atoms: _324  and  _325
REMARK  133  A    between atoms: _327  and  _329
REMARK  134  A    between atoms: _329  and  _330
REMARK  135  A    between atoms: _329  and  _332
REMARK  136  A    between atoms: _332  and  _333
REMARK  137  A    between atoms: _336  and  _338
REMARK  138  A    between atoms: _338  and  _339
REMARK  139  A    between atoms: _338  and  _341
REMARK  140  A    between atoms: _344  and  _346
REMARK  141  A    between atoms: _346  and  _347
REMARK  142  A    between atoms: _346  and  _349
REMARK  143  A    between atoms: _349  and  _350
REMARK  144  A    between atoms: _353  and  _355
REMARK  145  A    between atoms: _355  and  _356
REMARK  146  A    between atoms: _355  and  _358
REMARK  147  A    between atoms: _358  and  _359
REMARK  148  A    between atoms: _364  and  _366
REMARK  149  A    between atoms: _366  and  _367
REMARK  150  A    between atoms: _366  and  _369
REMARK  151  A    between atoms: _369  and  _370
REMARK  152  A    between atoms: _373  and  _375
REMARK  153  A    between atoms: _375  and  _376
REMARK  154  A    between atoms: _375  and  _378
REMARK  155  A    between atoms: _378  and  _379
REMARK  156  A    between atoms: _379  and  _380
REMARK  157  A    between atoms: _382  and  _384
REMARK  158  A    between atoms: _384  and  _385
REMARK  159  A    between atoms: _387  and  _389
REMARK  160  A    between atoms: _389  and  _390
REMARK  161  A    between atoms: _393  and  _395
REMARK  162  A    between atoms: _395  and  _396
REMARK  163  A    between atoms: _395  and  _398
REMARK  164  A    between atoms: _398  and  _399
REMARK  165  A    between atoms: _402  and  _404
REMARK  166  A    between atoms: _404  and  _405
REMARK  167  A    between atoms: _404  and  _407
REMARK  168  A    between atoms: _407  and  _408
REMARK  169  A    between atoms: _413  and  _415
REMARK  170  A    between atoms: _415  and  _416
REMARK  171  A    between atoms: _418  and  _420
REMARK  172  A    between atoms: _420  and  _421
REMARK  173  A    between atoms: _420  and  _423
REMARK  174  A    between atoms: _423  and  _424
REMARK  175  A    between atoms: _427  and  _429
REMARK  176  A    between atoms: _429  and  _430
REMARK  177  A    between atoms: _429  and  _432
REMARK  178  A    between atoms: _432  and  _433
REMARK  179  A    between atoms: _438  and  _439
REMARK  180  A    between atoms: _441  and  _443
REMARK  181  A    between atoms: _443  and  _444
REMARK  182  A    between atoms: _443  and  _446
REMARK  183  A    between atoms: _446  and  _447
REMARK  184  A    between atoms: _450  and  _452
REMARK  185  A    between atoms: _452  and  _453
REMARK  186  A    between atoms: _452  and  _455
REMARK  187  A    between atoms: _455  and  _456
REMARK  188  A    between atoms: _461  and  _463
REMARK  189  A    between atoms: _463  and  _464
REMARK  190  A    between atoms: _467  and  _469
REMARK  191  A    between atoms: _469  and  _470
REMARK  192  A    between atoms: _469  and  _472
REMARK  193  A    between atoms: _472  and  _473
REMARK  194  A    between atoms: _476  and  _478
REMARK  195  A    between atoms: _478  and  _479
REMARK  196  A    between atoms: _478  and  _481
REMARK  197  A    between atoms: _481  and  _482
REMARK  198  A    between atoms: _485  and  _487
REMARK  199  A    between atoms: _487  and  _488
REMARK  200  A    between atoms: _487  and  _490
REMARK  201  A    between atoms: _490  and  _491
REMARK  202  A    between atoms: _496  and  _498
REMARK  203  A    between atoms: _498  and  _499
REMARK  204  A    between atoms: _498  and  _501
REMARK  205  A    between atoms: _501  and  _502
REMARK  206  A    between atoms: _502  and  _503
REMARK  207  A    between atoms: _503  and  _504
REMARK  208  A    between atoms: _513  and  _515
REMARK  209  A    between atoms: _515  and  _516
REMARK  210  A    between atoms: _515  and  _518
REMARK  211  A    between atoms: _518  and  _519
REMARK  212  A    between atoms: _522  and  _524
REMARK  213  A    between atoms: _524  and  _525
REMARK  214  A    between atoms: _524  and  _527
REMARK  215  A    between atoms: _527  and  _528
REMARK  216  A    between atoms: _531  and  _533
REMARK  217  A    between atoms: _533  and  _534
REMARK  218  A    between atoms: _533  and  _536
REMARK  219  A    between atoms: _536  and  _537
REMARK  220  A    between atoms: _539  and  _541
REMARK  221  A    between atoms: _541  and  _542
REMARK  222  A    between atoms: _541  and  _544
REMARK  223  A    between atoms: _544  and  _545
REMARK  224  A    between atoms: _550  and  _552
REMARK  225  A    between atoms: _552  and  _553
REMARK  226  A    between atoms: _552  and  _555
REMARK  227  A    between atoms: _555  and  _556
REMARK  228  A    between atoms: _559  and  _561
REMARK  229  A    between atoms: _561  and  _562
REMARK  230  A    between atoms: _565  and  _567
REMARK  231  A    between atoms: _567  and  _568
REMARK  232  A    between atoms: _567  and  _570
REMARK  233  A    between atoms: _570  and  _571
REMARK  234  A    between atoms: _571  and  _572
REMARK  235  A    between atoms: _572  and  _573
REMARK  236  A    between atoms: _573  and  _574
REMARK  237  A    between atoms: _578  and  _580
REMARK  238  A    between atoms: _580  and  _581
REMARK  239  A    between atoms: _580  and  _583
REMARK  240  A    between atoms: _583  and  _584
REMARK  241  A    between atoms: _587  and  _589
REMARK  242  A    between atoms: _589  and  _590
REMARK  243  A    between atoms: _589  and  _592
REMARK  244  A    between atoms: _592  and  _593
REMARK  245  A    between atoms: _596  and  _598
REMARK  246  A    between atoms: _598  and  _599
REMARK  247  A    between atoms: _598  and  _601
REMARK  248  A    between atoms: _601  and  _602
REMARK  249  A    between atoms: _605  and  _607
REMARK  250  A    between atoms: _607  and  _608
REMARK  251  A    between atoms: _607  and  _610
REMARK  252  A    between atoms: _610  and  _611
REMARK  253  A    between atoms: _617  and  _619
REMARK  254  A    between atoms: _619  and  _620
REMARK  255  A    between atoms: _622  and  _624
REMARK  256  A    between atoms: _624  and  _625
REMARK  257  A    between atoms: _624  and  _627
REMARK  258  A    between atoms: _627  and  _628
REMARK  259  A    between atoms: _631  and  _633
REMARK  260  A    between atoms: _633  and  _634
REMARK  261  A    between atoms: _633  and  _636
REMARK  262  A    between atoms: _636  and  _637
REMARK                            x       y       z     vdW  Elec       q    Type
REMARK                         _______ _______ _______ _____ _____    ______ ____
ROOT
ATOM      1  O   HOH     1      39.155  23.263  41.966  0.00  0.00    +0.000 OA
ENDROOT
TORSDOF 0
REMARK  Name = ../refined-set-2016/3e93/3e93_pocket.pdb
REMARK  262 active torsions:
REMARK  status: ('A' for Active; 'I' for Inactive)
REMARK    1  A    between atoms: _1  and  _3
REMARK    2  A    between atoms: _3  and  _4
REMARK    3  A    between atoms: _3  and  _6
REMARK    4  A    between atoms: _6  and  _7
REMARK    5  A    between atoms: _17  and  _19
REMARK    6  A    between atoms: _19  and  _20
REMARK    7  A    between atoms: _19  and  _22
REMARK    8  A    between atoms: _22  and  _23
REMARK    9  A    between atoms: _26  and  _27
REMARK   10  A    between atoms: _32  and  _34
REMARK   11  A    between atoms: _34  and  _35
REMARK   12  A    between atoms: _34  and  _37
REMARK   13  A    between atoms: _40  and  _42
REMARK   14  A    between atoms: _42  and  _43
REMARK   15  A    between atoms: _45  and  _47
REMARK   16  A    between atoms: _47  and  _48
REMARK   17  A    between atoms: _47  and  _50
REMARK   18  A    between atoms: _50  and  _51
REMARK   19  A    between atoms: _53  and  _55
REMARK   20  A    between atoms: _55  and  _56
REMARK   21  A    between atoms: _55  and  _58
REMARK   22  A    between atoms: _58  and  _59
REMARK   23  A    between atoms: _61  and  _63
REMARK   24  A    between atoms: _63  and  _64
REMARK   25  A    between atoms: _63  and  _66
REMARK   26  A    between atoms: _69  and  _71
REMARK   27  A    between atoms: _71  and  _72
REMARK   28  A    between atoms: _71  and  _74
REMARK   29  A    between atoms: _76  and  _78
REMARK   30  A    between atoms: _78  and  _79
REMARK   31  A    between atoms: _82  and  _84
REMARK   32  A    between atoms: _84  and  _85
REMARK   33  A    between atoms: _88  and  _90
REMARK   34  A    between atoms: _90  and  _91
REMARK   35  A    between atoms: _90  and  _93
REMARK   36  A    between atoms: _93  and  _94
REMARK   37  A    between atoms: _94  and  _95
REMARK   38  A    between atoms: _95  and  _96
REMARK   39  A    between atoms: _105  and  _107
REMARK   40  A    between atoms: _107  and  _108
REMARK   41  A    between atoms: _107  and  _110
REMARK   42  A    between atoms: _113  and  _115
REMARK   43  A    between atoms: _115  and  _116
REMARK   44  A    between atoms: _119  and  _121
REMARK   45  A    between atoms: _121  and  _122
REMARK   46  A    between atoms: _121  and  _124
REMARK   47  A    between atoms: _127  and  _129
REMARK   48  A    between atoms: _129  and  _130
REMARK   49  A    between atoms: _129  and  _132
REMARK   50  A    between atoms: _132  and  _133
REMARK   51  A    between atoms: _133  and  _134
REMARK   52  A    between atoms: _134  and  _135
REMARK   53  A    between atoms: _135  and  _136
REMARK   54  A    between atoms: _140  and  _142
REMARK   55  A    between atoms: _142  and  _143
REMARK   56  A    between atoms: _142  and  _145
REMARK   57  A    between atoms: _145  and  _146
REMARK   58  A    between atoms: _146  and  _147
REMARK   59  A    between atoms: _147  and  _148
REMARK   60  A    between atoms: _148  and  _149
REMARK   61  A    between atoms: _153  and  _155
REMARK   62  A    between atoms: _155  and  _156
REMARK   63  A    between atoms: _155  and  _158
REMARK   64  A    between atoms: _158  and  _159
REMARK   65  A    between atoms: _162  and  _164
REMARK   66  A    between atoms: _164  and  _165
REMARK   67  A    between atoms: _164  and  _167
REMARK   68  A    between atoms: _167  and  _168
REMARK   69  A    between atoms: _168  and  _169
REMARK   70  A    between atoms: _169  and  _170
REMARK   71  A    between atoms: _179  and  _181
REMARK   72  A    between atoms: _181  and  _182
REMARK   73  A    between atoms: _181  and  _184
REMARK   74  A    between atoms: _184  and  _185
REMARK   75  A    between atoms: _185  and  _186
REMARK   76  A    between atoms: _186  and  _187
REMARK   77  A    between atoms: _196  and  _198
REMARK   78  A    between atoms: _198  and  _199
REMARK   79  A    between atoms: _198  and  _201
REMARK   80  A    between atoms: _201  and  _202
REMARK   81  A    between atoms: _202  and  _203
REMARK   82  A    between atoms: _206  and  _208
REMARK   83  A    between atoms: _208  and  _209
REMARK   84  A    between atoms: _208  and  _211
REMARK   85  A    between atoms: _211  and  _212
REMARK   86  A    between atoms: _215  and  _217
REMARK   87  A    between atoms: _217  and  _218
REMARK   88  A    between atoms: _217  and  _220
REMARK   89  A    between atoms: _220  and  _221
REMARK   90  A    between atoms: _224  and  _226
REMARK   91  A    between atoms: _226  and  _227
REMARK   92  A    between atoms: _226  and  _229
REMARK   93  A    between atoms: _229  and  _230
REMARK   94  A    between atoms: _233  and  _235
REMARK   95  A    between atoms: _235  and  _236
REMARK   96  A    between atoms: _235  and  _238
REMARK   97  A    between atoms: _238  and  _239
REMARK   98  A    between atoms: _239  and  _240
REMARK   99  A    between atoms: _242  and  _244
REMARK  100  A    between atoms: _244  and  _245
REMARK  101  A    between atoms: _244  and  _247
REMARK  102  A    between atoms: _247  and  _248
REMARK  103  A    between atoms: _253  and  _255
REMARK  104  A    between atoms: _255  and  _256
REMARK  105  A    between atoms: _255  and  _258
REMARK  106  A    between atoms: _258  and  _259
REMARK  107  A    between atoms: _264  and  _266
REMARK  108  A    between atoms: _266  and  _267
REMARK  109  A    between atoms: _266  and  _269
REMARK  110  A    between atoms: _272  and  _274
REMARK  111  A    between atoms: _274  and  _275
REMARK  112  A    between atoms: _274  and  _277
REMARK  113  A    between atoms: _277  and  _278
REMARK  114  A    between atoms: _281  and  _283
REMARK  115  A    between atoms: _283  and  _284
REMARK  116  A    between atoms: _286  and  _288
REMARK  117  A    between atoms: _288  and  _289
REMARK  118  A    between atoms: _288  and  _291
REMARK  119  A    between atoms: _291  and  _292
REMARK  120  A    between atoms: _295  and  _297
REMARK  121  A    between atoms: _297  and  _298
REMARK  122  A    between atoms: _297  and  _300
REMARK  123  A    between atoms: _300  and  _301
REMARK  124  A    between atoms: _304  and  _306
REMARK  125  A    between atoms: _306  and  _307
REMARK  126  A    between atoms: _306  and  _309
REMARK  127  A    between atoms: _309  and  _310
REMARK  128  A    between atoms: _313  and  _315
REMARK  129  A    between atoms: _315  and  _316
REMARK  130  A    between atoms: _315  and  _318
REMARK  131  A    between atoms: _318  and  _319
REMARK  132  A    between atoms: _324  and  _325
REMARK  133  A    between atoms: _327  and  _329
REMARK  134  A    between atoms: _329  and  _330
REMARK  135  A    between atoms: _329  and  _332
REMARK  136  A    between atoms: _332  and  _333
REMARK  137  A    between atoms: _336  and  _338
REMARK  138  A    between atoms: _338  and  _339
REMARK  139  A    between atoms: _338  and  _341
REMARK  140  A    between atoms: _344  and  _346
REMARK  141  A    between atoms: _346  and  _347
REMARK  142  A    between atoms: _346  and  _349
REMARK  143  A    between atoms: _349  and  _350
REMARK  144  A    between atoms: _353  and  _355
REMARK  145  A    between atoms: _355  and  _356
REMARK  146  A    between atoms: _355  and  _358
REMARK  147  A    between atoms: _358  and  _359
REMARK  148  A    between atoms: _364  and  _366
REMARK  149  A    between atoms: _366  and  _367
REMARK  150  A    between atoms: _366  and  _369
REMARK  151  A    between atoms: _369  and  _370
REMARK  152  A    between atoms: _373  and  _375
REMARK  153  A    between atoms: _375  and  _376
REMARK  154  A    between atoms: _375  and  _378
REMARK  155  A    between atoms: _378  and  _379
REMARK  156  A    between atoms: _379  and  _380
REMARK  157  A    between atoms: _382  and  _384
REMARK  158  A    between atoms: _384  and  _385
REMARK  159  A    between atoms: _387  and  _389
REMARK  160  A    between atoms: _389  and  _390
REMARK  161  A    between atoms: _393  and  _395
REMARK  162  A    between atoms: _395  and  _396
REMARK  163  A    between atoms: _395  and  _398
REMARK  164  A    between atoms: _398  and  _399
REMARK  165  A    between atoms: _402  and  _404
REMARK  166  A    between atoms: _404  and  _405
REMARK  167  A    between atoms: _404  and  _407
REMARK  168  A    between atoms: _407  and  _408
REMARK  169  A    between atoms: _413  and  _415
REMARK  170  A    between atoms: _415  and  _416
REMARK  171  A    between atoms: _418  and  _420
REMARK  172  A    between atoms: _420  and  _421
REMARK  173  A    between atoms: _420  and  _423
REMARK  174  A    between atoms: _423  and  _424
REMARK  175  A    between atoms: _427  and  _429
REMARK  176  A    between atoms: _429  and  _430
REMARK  177  A    between atoms: _429  and  _432
REMARK  178  A    between atoms: _432  and  _433
REMARK  179  A    between atoms: _438  and  _439
REMARK  180  A    between atoms: _441  and  _443
REMARK  181  A    between atoms: _443  and  _444
REMARK  182  A    between atoms: _443  and  _446
REMARK  183  A    between atoms: _446  and  _447
REMARK  184  A    between atoms: _450  and  _452
REMARK  185  A    between atoms: _452  and  _453
REMARK  186  A    between atoms: _452  and  _455
REMARK  187  A    between atoms: _455  and  _456
REMARK  188  A    between atoms: _461  and  _463
REMARK  189  A    between atoms: _463  and  _464
REMARK  190  A    between atoms: _467  and  _469
REMARK  191  A    between atoms: _469  and  _470
REMARK  192  A    between atoms: _469  and  _472
REMARK  193  A    between atoms: _472  and  _473
REMARK  194  A    between atoms: _476  and  _478
REMARK  195  A    between atoms: _478  and  _479
REMARK  196  A    between atoms: _478  and  _481
REMARK  197  A    between atoms: _481  and  _482
REMARK  198  A    between atoms: _485  and  _487
REMARK  199  A    between atoms: _487  and  _488
REMARK  200  A    between atoms: _487  and  _490
REMARK  201  A    between atoms: _490  and  _491
REMARK  202  A    between atoms: _496  and  _498
REMARK  203  A    between atoms: _498  and  _499
REMARK  204  A    between atoms: _498  and  _501
REMARK  205  A    between atoms: _501  and  _502
REMARK  206  A    between atoms: _502  and  _503
REMARK  207  A    between atoms: _503  and  _504
REMARK  208  A    between atoms: _513  and  _515
REMARK  209  A    between atoms: _515  and  _516
REMARK  210  A    between atoms: _515  and  _518
REMARK  211  A    between atoms: _518  and  _519
REMARK  212  A    between atoms: _522  and  _524
REMARK  213  A    between atoms: _524  and  _525
REMARK  214  A    between atoms: _524  and  _527
REMARK  215  A    between atoms: _527  and  _528
REMARK  216  A    between atoms: _531  and  _533
REMARK  217  A    between atoms: _533  and  _534
REMARK  218  A    between atoms: _533  and  _536
REMARK  219  A    between atoms: _536  and  _537
REMARK  220  A    between atoms: _539  and  _541
REMARK  221  A    between atoms: _541  and  _542
REMARK  222  A    between atoms: _541  and  _544
REMARK  223  A    between atoms: _544  and  _545
REMARK  224  A    between atoms: _550  and  _552
REMARK  225  A    between atoms: _552  and  _553
REMARK  226  A    between atoms: _552  and  _555
REMARK  227  A    between atoms: _555  and  _556
REMARK  228  A    between atoms: _559  and  _561
REMARK  229  A    between atoms: _561  and  _562
REMARK  230  A    between atoms: _565  and  _567
REMARK  231  A    between atoms: _567  and  _568
REMARK  232  A    between atoms: _567  and  _570
REMARK  233  A    between atoms: _570  and  _571
REMARK  234  A    between atoms: _571  and  _572
REMARK  235  A    between atoms: _572  and  _573
REMARK  236  A    between atoms: _573  and  _574
REMARK  237  A    between atoms: _578  and  _580
REMARK  238  A    between atoms: _580  and  _581
REMARK  239  A    between atoms: _580  and  _583
REMARK  240  A    between atoms: _583  and  _584
REMARK  241  A    between atoms: _587  and  _589
REMARK  242  A    between atoms: _589  and  _590
REMARK  243  A    between atoms: _589  and  _592
REMARK  244  A    between atoms: _592  and  _593
REMARK  245  A    between atoms: _596  and  _598
REMARK  246  A    between atoms: _598  and  _599
REMARK  247  A    between atoms: _598  and  _601
REMARK  248  A    between atoms: _601  and  _602
REMARK  249  A    between atoms: _605  and  _607
REMARK  250  A    between atoms: _607  and  _608
REMARK  251  A    between atoms: _607  and  _610
REMARK  252  A    between atoms: _610  and  _611
REMARK  253  A    between atoms: _617  and  _619
REMARK  254  A    between atoms: _619  and  _620
REMARK  255  A    between atoms: _622  and  _624
REMARK  256  A    between atoms: _624  and  _625
REMARK  257  A    between atoms: _624  and  _627
REMARK  258  A    between atoms: _627  and  _628
REMARK  259  A    between atoms: _631  and  _633
REMARK  260  A    between atoms: _633  and  _634
REMARK  261  A    between atoms: _633  and  _636
REMARK  262  A    between atoms: _636  and  _637
REMARK                            x       y       z     vdW  Elec       q    Type
REMARK                         _______ _______ _______ _____ _____    ______ ____
ROOT
ATOM      1  O   HOH     1      41.432  23.469  40.491  0.00  0.00    +0.000 OA
ENDROOT
TORSDOF 0
REMARK  Name = ../refined-set-2016/3e93/3e93_pocket.pdb
REMARK  262 active torsions:
REMARK  status: ('A' for Active; 'I' for Inactive)
REMARK    1  A    between atoms: _1  and  _3
REMARK    2  A    between atoms: _3  and  _4
REMARK    3  A    between atoms: _3  and  _6
REMARK    4  A    between atoms: _6  and  _7
REMARK    5  A    between atoms: _17  and  _19
REMARK    6  A    between atoms: _19  and  _20
REMARK    7  A    between atoms: _19  and  _22
REMARK    8  A    between atoms: _22  and  _23
REMARK    9  A    between atoms: _26  and  _27
REMARK   10  A    between atoms: _32  and  _34
REMARK   11  A    between atoms: _34  and  _35
REMARK   12  A    between atoms: _34  and  _37
REMARK   13  A    between atoms: _40  and  _42
REMARK   14  A    between atoms: _42  and  _43
REMARK   15  A    between atoms: _45  and  _47
REMARK   16  A    between atoms: _47  and  _48
REMARK   17  A    between atoms: _47  and  _50
REMARK   18  A    between atoms: _50  and  _51
REMARK   19  A    between atoms: _53  and  _55
REMARK   20  A    between atoms: _55  and  _56
REMARK   21  A    between atoms: _55  and  _58
REMARK   22  A    between atoms: _58  and  _59
REMARK   23  A    between atoms: _61  and  _63
REMARK   24  A    between atoms: _63  and  _64
REMARK   25  A    between atoms: _63  and  _66
REMARK   26  A    between atoms: _69  and  _71
REMARK   27  A    between atoms: _71  and  _72
REMARK   28  A    between atoms: _71  and  _74
REMARK   29  A    between atoms: _76  and  _78
REMARK   30  A    between atoms: _78  and  _79
REMARK   31  A    between atoms: _82  and  _84
REMARK   32  A    between atoms: _84  and  _85
REMARK   33  A    between atoms: _88  and  _90
REMARK   34  A    between atoms: _90  and  _91
REMARK   35  A    between atoms: _90  and  _93
REMARK   36  A    between atoms: _93  and  _94
REMARK   37  A    between atoms: _94  and  _95
REMARK   38  A    between atoms: _95  and  _96
REMARK   39  A    between atoms: _105  and  _107
REMARK   40  A    between atoms: _107  and  _108
REMARK   41  A    between atoms: _107  and  _110
REMARK   42  A    between atoms: _113  and  _115
REMARK   43  A    between atoms: _115  and  _116
REMARK   44  A    between atoms: _119  and  _121
REMARK   45  A    between atoms: _121  and  _122
REMARK   46  A    between atoms: _121  and  _124
REMARK   47  A    between atoms: _127  and  _129
REMARK   48  A    between atoms: _129  and  _130
REMARK   49  A    between atoms: _129  and  _132
REMARK   50  A    between atoms: _132  and  _133
REMARK   51  A    between atoms: _133  and  _134
REMARK   52  A    between atoms: _134  and  _135
REMARK   53  A    between atoms: _135  and  _136
REMARK   54  A    between atoms: _140  and  _142
REMARK   55  A    between atoms: _142  and  _143
REMARK   56  A    between atoms: _142  and  _145
REMARK   57  A    between atoms: _145  and  _146
REMARK   58  A    between atoms: _146  and  _147
REMARK   59  A    between atoms: _147  and  _148
REMARK   60  A    between atoms: _148  and  _149
REMARK   61  A    between atoms: _153  and  _155
REMARK   62  A    between atoms: _155  and  _156
REMARK   63  A    between atoms: _155  and  _158
REMARK   64  A    between atoms: _158  and  _159
REMARK   65  A    between atoms: _162  and  _164
REMARK   66  A    between atoms: _164  and  _165
REMARK   67  A    between atoms: _164  and  _167
REMARK   68  A    between atoms: _167  and  _168
REMARK   69  A    between atoms: _168  and  _169
REMARK   70  A    between atoms: _169  and  _170
REMARK   71  A    between atoms: _179  and  _181
REMARK   72  A    between atoms: _181  and  _182
REMARK   73  A    between atoms: _181  and  _184
REMARK   74  A    between atoms: _184  and  _185
REMARK   75  A    between atoms: _185  and  _186
REMARK   76  A    between atoms: _186  and  _187
REMARK   77  A    between atoms: _196  and  _198
REMARK   78  A    between atoms: _198  and  _199
REMARK   79  A    between atoms: _198  and  _201
REMARK   80  A    between atoms: _201  and  _202
REMARK   81  A    between atoms: _202  and  _203
REMARK   82  A    between atoms: _206  and  _208
REMARK   83  A    between atoms: _208  and  _209
REMARK   84  A    between atoms: _208  and  _211
REMARK   85  A    between atoms: _211  and  _212
REMARK   86  A    between atoms: _215  and  _217
REMARK   87  A    between atoms: _217  and  _218
REMARK   88  A    between atoms: _217  and  _220
REMARK   89  A    between atoms: _220  and  _221
REMARK   90  A    between atoms: _224  and  _226
REMARK   91  A    between atoms: _226  and  _227
REMARK   92  A    between atoms: _226  and  _229
REMARK   93  A    between atoms: _229  and  _230
REMARK   94  A    between atoms: _233  and  _235
REMARK   95  A    between atoms: _235  and  _236
REMARK   96  A    between atoms: _235  and  _238
REMARK   97  A    between atoms: _238  and  _239
REMARK   98  A    between atoms: _239  and  _240
REMARK   99  A    between atoms: _242  and  _244
REMARK  100  A    between atoms: _244  and  _245
REMARK  101  A    between atoms: _244  and  _247
REMARK  102  A    between atoms: _247  and  _248
REMARK  103  A    between atoms: _253  and  _255
REMARK  104  A    between atoms: _255  and  _256
REMARK  105  A    between atoms: _255  and  _258
REMARK  106  A    between atoms: _258  and  _259
REMARK  107  A    between atoms: _264  and  _266
REMARK  108  A    between atoms: _266  and  _267
REMARK  109  A    between atoms: _266  and  _269
REMARK  110  A    between atoms: _272  and  _274
REMARK  111  A    between atoms: _274  and  _275
REMARK  112  A    between atoms: _274  and  _277
REMARK  113  A    between atoms: _277  and  _278
REMARK  114  A    between atoms: _281  and  _283
REMARK  115  A    between atoms: _283  and  _284
REMARK  116  A    between atoms: _286  and  _288
REMARK  117  A    between atoms: _288  and  _289
REMARK  118  A    between atoms: _288  and  _291
REMARK  119  A    between atoms: _291  and  _292
REMARK  120  A    between atoms: _295  and  _297
REMARK  121  A    between atoms: _297  and  _298
REMARK  122  A    between atoms: _297  and  _300
REMARK  123  A    between atoms: _300  and  _301
REMARK  124  A    between atoms: _304  and  _306
REMARK  125  A    between atoms: _306  and  _307
REMARK  126  A    between atoms: _306  and  _309
REMARK  127  A    between atoms: _309  and  _310
REMARK  128  A    between atoms: _313  and  _315
REMARK  129  A    between atoms: _315  and  _316
REMARK  130  A    between atoms: _315  and  _318
REMARK  131  A    between atoms: _318  and  _319
REMARK  132  A    between atoms: _324  and  _325
REMARK  133  A    between atoms: _327  and  _329
REMARK  134  A    between atoms: _329  and  _330
REMARK  135  A    between atoms: _329  and  _332
REMARK  136  A    between atoms: _332  and  _333
REMARK  137  A    between atoms: _336  and  _338
REMARK  138  A    between atoms: _338  and  _339
REMARK  139  A    between atoms: _338  and  _341
REMARK  140  A    between atoms: _344  and  _346
REMARK  141  A    between atoms: _346  and  _347
REMARK  142  A    between atoms: _346  and  _349
REMARK  143  A    between atoms: _349  and  _350
REMARK  144  A    between atoms: _353  and  _355
REMARK  145  A    between atoms: _355  and  _356
REMARK  146  A    between atoms: _355  and  _358
REMARK  147  A    between atoms: _358  and  _359
REMARK  148  A    between atoms: _364  and  _366
REMARK  149  A    between atoms: _366  and  _367
REMARK  150  A    between atoms: _366  and  _369
REMARK  151  A    between atoms: _369  and  _370
REMARK  152  A    between atoms: _373  and  _375
REMARK  153  A    between atoms: _375  and  _376
REMARK  154  A    between atoms: _375  and  _378
REMARK  155  A    between atoms: _378  and  _379
REMARK  156  A    between atoms: _379  and  _380
REMARK  157  A    between atoms: _382  and  _384
REMARK  158  A    between atoms: _384  and  _385
REMARK  159  A    between atoms: _387  and  _389
REMARK  160  A    between atoms: _389  and  _390
REMARK  161  A    between atoms: _393  and  _395
REMARK  162  A    between atoms: _395  and  _396
REMARK  163  A    between atoms: _395  and  _398
REMARK  164  A    between atoms: _398  and  _399
REMARK  165  A    between atoms: _402  and  _404
REMARK  166  A    between atoms: _404  and  _405
REMARK  167  A    between atoms: _404  and  _407
REMARK  168  A    between atoms: _407  and  _408
REMARK  169  A    between atoms: _413  and  _415
REMARK  170  A    between atoms: _415  and  _416
REMARK  171  A    between atoms: _418  and  _420
REMARK  172  A    between atoms: _420  and  _421
REMARK  173  A    between atoms: _420  and  _423
REMARK  174  A    between atoms: _423  and  _424
REMARK  175  A    between atoms: _427  and  _429
REMARK  176  A    between atoms: _429  and  _430
REMARK  177  A    between atoms: _429  and  _432
REMARK  178  A    between atoms: _432  and  _433
REMARK  179  A    between atoms: _438  and  _439
REMARK  180  A    between atoms: _441  and  _443
REMARK  181  A    between atoms: _443  and  _444
REMARK  182  A    between atoms: _443  and  _446
REMARK  183  A    between atoms: _446  and  _447
REMARK  184  A    between atoms: _450  and  _452
REMARK  185  A    between atoms: _452  and  _453
REMARK  186  A    between atoms: _452  and  _455
REMARK  187  A    between atoms: _455  and  _456
REMARK  188  A    between atoms: _461  and  _463
REMARK  189  A    between atoms: _463  and  _464
REMARK  190  A    between atoms: _467  and  _469
REMARK  191  A    between atoms: _469  and  _470
REMARK  192  A    between atoms: _469  and  _472
REMARK  193  A    between atoms: _472  and  _473
REMARK  194  A    between atoms: _476  and  _478
REMARK  195  A    between atoms: _478  and  _479
REMARK  196  A    between atoms: _478  and  _481
REMARK  197  A    between atoms: _481  and  _482
REMARK  198  A    between atoms: _485  and  _487
REMARK  199  A    between atoms: _487  and  _488
REMARK  200  A    between atoms: _487  and  _490
REMARK  201  A    between atoms: _490  and  _491
REMARK  202  A    between atoms: _496  and  _498
REMARK  203  A    between atoms: _498  and  _499
REMARK  204  A    between atoms: _498  and  _501
REMARK  205  A    between atoms: _501  and  _502
REMARK  206  A    between atoms: _502  and  _503
REMARK  207  A    between atoms: _503  and  _504
REMARK  208  A    between atoms: _513  and  _515
REMARK  209  A    between atoms: _515  and  _516
REMARK  210  A    between atoms: _515  and  _518
REMARK  211  A    between atoms: _518  and  _519
REMARK  212  A    between atoms: _522  and  _524
REMARK  213  A    between atoms: _524  and  _525
REMARK  214  A    between atoms: _524  and  _527
REMARK  215  A    between atoms: _527  and  _528
REMARK  216  A    between atoms: _531  and  _533
REMARK  217  A    between atoms: _533  and  _534
REMARK  218  A    between atoms: _533  and  _536
REMARK  219  A    between atoms: _536  and  _537
REMARK  220  A    between atoms: _539  and  _541
REMARK  221  A    between atoms: _541  and  _542
REMARK  222  A    between atoms: _541  and  _544
REMARK  223  A    between atoms: _544  and  _545
REMARK  224  A    between atoms: _550  and  _552
REMARK  225  A    between atoms: _552  and  _553
REMARK  226  A    between atoms: _552  and  _555
REMARK  227  A    between atoms: _555  and  _556
REMARK  228  A    between atoms: _559  and  _561
REMARK  229  A    between atoms: _561  and  _562
REMARK  230  A    between atoms: _565  and  _567
REMARK  231  A    between atoms: _567  and  _568
REMARK  232  A    between atoms: _567  and  _570
REMARK  233  A    between atoms: _570  and  _571
REMARK  234  A    between atoms: _571  and  _572
REMARK  235  A    between atoms: _572  and  _573
REMARK  236  A    between atoms: _573  and  _574
REMARK  237  A    between atoms: _578  and  _580
REMARK  238  A    between atoms: _580  and  _581
REMARK  239  A    between atoms: _580  and  _583
REMARK  240  A    between atoms: _583  and  _584
REMARK  241  A    between atoms: _587  and  _589
REMARK  242  A    between atoms: _589  and  _590
REMARK  243  A    between atoms: _589  and  _592
REMARK  244  A    between atoms: _592  and  _593
REMARK  245  A    between atoms: _596  and  _598
REMARK  246  A    between atoms: _598  and  _599
REMARK  247  A    between atoms: _598  and  _601
REMARK  248  A    between atoms: _601  and  _602
REMARK  249  A    between atoms: _605  and  _607
REMARK  250  A    between atoms: _607  and  _608
REMARK  251  A    between atoms: _607  and  _610
REMARK  252  A    between atoms: _610  and  _611
REMARK  253  A    between atoms: _617  and  _619
REMARK  254  A    between atoms: _619  and  _620
REMARK  255  A    between atoms: _622  and  _624
REMARK  256  A    between atoms: _624  and  _625
REMARK  257  A    between atoms: _624  and  _627
REMARK  258  A    between atoms: _627  and  _628
REMARK  259  A    between atoms: _631  and  _633
REMARK  260  A    between atoms: _633  and  _634
REMARK  261  A    between atoms: _633  and  _636
REMARK  262  A    between atoms: _636  and  _637
REMARK                            x       y       z     vdW  Elec       q    Type
REMARK                         _______ _______ _______ _____ _____    ______ ____
ROOT
ATOM      1  O   HOH     1      43.725  21.410  37.597  0.00  0.00    +0.000 OA
ENDROOT
TORSDOF 0
REMARK  Name = ../refined-set-2016/3e93/3e93_pocket.pdb
REMARK  262 active torsions:
REMARK  status: ('A' for Active; 'I' for Inactive)
REMARK    1  A    between atoms: _1  and  _3
REMARK    2  A    between atoms: _3  and  _4
REMARK    3  A    between atoms: _3  and  _6
REMARK    4  A    between atoms: _6  and  _7
REMARK    5  A    between atoms: _17  and  _19
REMARK    6  A    between atoms: _19  and  _20
REMARK    7  A    between atoms: _19  and  _22
REMARK    8  A    between atoms: _22  and  _23
REMARK    9  A    between atoms: _26  and  _27
REMARK   10  A    between atoms: _32  and  _34
REMARK   11  A    between atoms: _34  and  _35
REMARK   12  A    between atoms: _34  and  _37
REMARK   13  A    between atoms: _40  and  _42
REMARK   14  A    between atoms: _42  and  _43
REMARK   15  A    between atoms: _45  and  _47
REMARK   16  A    between atoms: _47  and  _48
REMARK   17  A    between atoms: _47  and  _50
REMARK   18  A    between atoms: _50  and  _51
REMARK   19  A    between atoms: _53  and  _55
REMARK   20  A    between atoms: _55  and  _56
REMARK   21  A    between atoms: _55  and  _58
REMARK   22  A    between atoms: _58  and  _59
REMARK   23  A    between atoms: _61  and  _63
REMARK   24  A    between atoms: _63  and  _64
REMARK   25  A    between atoms: _63  and  _66
REMARK   26  A    between atoms: _69  and  _71
REMARK   27  A    between atoms: _71  and  _72
REMARK   28  A    between atoms: _71  and  _74
REMARK   29  A    between atoms: _76  and  _78
REMARK   30  A    between atoms: _78  and  _79
REMARK   31  A    between atoms: _82  and  _84
REMARK   32  A    between atoms: _84  and  _85
REMARK   33  A    between atoms: _88  and  _90
REMARK   34  A    between atoms: _90  and  _91
REMARK   35  A    between atoms: _90  and  _93
REMARK   36  A    between atoms: _93  and  _94
REMARK   37  A    between atoms: _94  and  _95
REMARK   38  A    between atoms: _95  and  _96
REMARK   39  A    between atoms: _105  and  _107
REMARK   40  A    between atoms: _107  and  _108
REMARK   41  A    between atoms: _107  and  _110
REMARK   42  A    between atoms: _113  and  _115
REMARK   43  A    between atoms: _115  and  _116
REMARK   44  A    between atoms: _119  and  _121
REMARK   45  A    between atoms: _121  and  _122
REMARK   46  A    between atoms: _121  and  _124
REMARK   47  A    between atoms: _127  and  _129
REMARK   48  A    between atoms: _129  and  _130
REMARK   49  A    between atoms: _129  and  _132
REMARK   50  A    between atoms: _132  and  _133
REMARK   51  A    between atoms: _133  and  _134
REMARK   52  A    between atoms: _134  and  _135
REMARK   53  A    between atoms: _135  and  _136
REMARK   54  A    between atoms: _140  and  _142
REMARK   55  A    between atoms: _142  and  _143
REMARK   56  A    between atoms: _142  and  _145
REMARK   57  A    between atoms: _145  and  _146
REMARK   58  A    between atoms: _146  and  _147
REMARK   59  A    between atoms: _147  and  _148
REMARK   60  A    between atoms: _148  and  _149
REMARK   61  A    between atoms: _153  and  _155
REMARK   62  A    between atoms: _155  and  _156
REMARK   63  A    between atoms: _155  and  _158
REMARK   64  A    between atoms: _158  and  _159
REMARK   65  A    between atoms: _162  and  _164
REMARK   66  A    between atoms: _164  and  _165
REMARK   67  A    between atoms: _164  and  _167
REMARK   68  A    between atoms: _167  and  _168
REMARK   69  A    between atoms: _168  and  _169
REMARK   70  A    between atoms: _169  and  _170
REMARK   71  A    between atoms: _179  and  _181
REMARK   72  A    between atoms: _181  and  _182
REMARK   73  A    between atoms: _181  and  _184
REMARK   74  A    between atoms: _184  and  _185
REMARK   75  A    between atoms: _185  and  _186
REMARK   76  A    between atoms: _186  and  _187
REMARK   77  A    between atoms: _196  and  _198
REMARK   78  A    between atoms: _198  and  _199
REMARK   79  A    between atoms: _198  and  _201
REMARK   80  A    between atoms: _201  and  _202
REMARK   81  A    between atoms: _202  and  _203
REMARK   82  A    between atoms: _206  and  _208
REMARK   83  A    between atoms: _208  and  _209
REMARK   84  A    between atoms: _208  and  _211
REMARK   85  A    between atoms: _211  and  _212
REMARK   86  A    between atoms: _215  and  _217
REMARK   87  A    between atoms: _217  and  _218
REMARK   88  A    between atoms: _217  and  _220
REMARK   89  A    between atoms: _220  and  _221
REMARK   90  A    between atoms: _224  and  _226
REMARK   91  A    between atoms: _226  and  _227
REMARK   92  A    between atoms: _226  and  _229
REMARK   93  A    between atoms: _229  and  _230
REMARK   94  A    between atoms: _233  and  _235
REMARK   95  A    between atoms: _235  and  _236
REMARK   96  A    between atoms: _235  and  _238
REMARK   97  A    between atoms: _238  and  _239
REMARK   98  A    between atoms: _239  and  _240
REMARK   99  A    between atoms: _242  and  _244
REMARK  100  A    between atoms: _244  and  _245
REMARK  101  A    between atoms: _244  and  _247
REMARK  102  A    between atoms: _247  and  _248
REMARK  103  A    between atoms: _253  and  _255
REMARK  104  A    between atoms: _255  and  _256
REMARK  105  A    between atoms: _255  and  _258
REMARK  106  A    between atoms: _258  and  _259
REMARK  107  A    between atoms: _264  and  _266
REMARK  108  A    between atoms: _266  and  _267
REMARK  109  A    between atoms: _266  and  _269
REMARK  110  A    between atoms: _272  and  _274
REMARK  111  A    between atoms: _274  and  _275
REMARK  112  A    between atoms: _274  and  _277
REMARK  113  A    between atoms: _277  and  _278
REMARK  114  A    between atoms: _281  and  _283
REMARK  115  A    between atoms: _283  and  _284
REMARK  116  A    between atoms: _286  and  _288
REMARK  117  A    between atoms: _288  and  _289
REMARK  118  A    between atoms: _288  and  _291
REMARK  119  A    between atoms: _291  and  _292
REMARK  120  A    between atoms: _295  and  _297
REMARK  121  A    between atoms: _297  and  _298
REMARK  122  A    between atoms: _297  and  _300
REMARK  123  A    between atoms: _300  and  _301
REMARK  124  A    between atoms: _304  and  _306
REMARK  125  A    between atoms: _306  and  _307
REMARK  126  A    between atoms: _306  and  _309
REMARK  127  A    between atoms: _309  and  _310
REMARK  128  A    between atoms: _313  and  _315
REMARK  129  A    between atoms: _315  and  _316
REMARK  130  A    between atoms: _315  and  _318
REMARK  131  A    between atoms: _318  and  _319
REMARK  132  A    between atoms: _324  and  _325
REMARK  133  A    between atoms: _327  and  _329
REMARK  134  A    between atoms: _329  and  _330
REMARK  135  A    between atoms: _329  and  _332
REMARK  136  A    between atoms: _332  and  _333
REMARK  137  A    between atoms: _336  and  _338
REMARK  138  A    between atoms: _338  and  _339
REMARK  139  A    between atoms: _338  and  _341
REMARK  140  A    between atoms: _344  and  _346
REMARK  141  A    between atoms: _346  and  _347
REMARK  142  A    between atoms: _346  and  _349
REMARK  143  A    between atoms: _349  and  _350
REMARK  144  A    between atoms: _353  and  _355
REMARK  145  A    between atoms: _355  and  _356
REMARK  146  A    between atoms: _355  and  _358
REMARK  147  A    between atoms: _358  and  _359
REMARK  148  A    between atoms: _364  and  _366
REMARK  149  A    between atoms: _366  and  _367
REMARK  150  A    between atoms: _366  and  _369
REMARK  151  A    between atoms: _369  and  _370
REMARK  152  A    between atoms: _373  and  _375
REMARK  153  A    between atoms: _375  and  _376
REMARK  154  A    between atoms: _375  and  _378
REMARK  155  A    between atoms: _378  and  _379
REMARK  156  A    between atoms: _379  and  _380
REMARK  157  A    between atoms: _382  and  _384
REMARK  158  A    between atoms: _384  and  _385
REMARK  159  A    between atoms: _387  and  _389
REMARK  160  A    between atoms: _389  and  _390
REMARK  161  A    between atoms: _393  and  _395
REMARK  162  A    between atoms: _395  and  _396
REMARK  163  A    between atoms: _395  and  _398
REMARK  164  A    between atoms: _398  and  _399
REMARK  165  A    between atoms: _402  and  _404
REMARK  166  A    between atoms: _404  and  _405
REMARK  167  A    between atoms: _404  and  _407
REMARK  168  A    between atoms: _407  and  _408
REMARK  169  A    between atoms: _413  and  _415
REMARK  170  A    between atoms: _415  and  _416
REMARK  171  A    between atoms: _418  and  _420
REMARK  172  A    between atoms: _420  and  _421
REMARK  173  A    between atoms: _420  and  _423
REMARK  174  A    between atoms: _423  and  _424
REMARK  175  A    between atoms: _427  and  _429
REMARK  176  A    between atoms: _429  and  _430
REMARK  177  A    between atoms: _429  and  _432
REMARK  178  A    between atoms: _432  and  _433
REMARK  179  A    between atoms: _438  and  _439
REMARK  180  A    between atoms: _441  and  _443
REMARK  181  A    between atoms: _443  and  _444
REMARK  182  A    between atoms: _443  and  _446
REMARK  183  A    between atoms: _446  and  _447
REMARK  184  A    between atoms: _450  and  _452
REMARK  185  A    between atoms: _452  and  _453
REMARK  186  A    between atoms: _452  and  _455
REMARK  187  A    between atoms: _455  and  _456
REMARK  188  A    between atoms: _461  and  _463
REMARK  189  A    between atoms: _463  and  _464
REMARK  190  A    between atoms: _467  and  _469
REMARK  191  A    between atoms: _469  and  _470
REMARK  192  A    between atoms: _469  and  _472
REMARK  193  A    between atoms: _472  and  _473
REMARK  194  A    between atoms: _476  and  _478
REMARK  195  A    between atoms: _478  and  _479
REMARK  196  A    between atoms: _478  and  _481
REMARK  197  A    between atoms: _481  and  _482
REMARK  198  A    between atoms: _485  and  _487
REMARK  199  A    between atoms: _487  and  _488
REMARK  200  A    between atoms: _487  and  _490
REMARK  201  A    between atoms: _490  and  _491
REMARK  202  A    between atoms: _496  and  _498
REMARK  203  A    between atoms: _498  and  _499
REMARK  204  A    between atoms: _498  and  _501
REMARK  205  A    between atoms: _501  and  _502
REMARK  206  A    between atoms: _502  and  _503
REMARK  207  A    between atoms: _503  and  _504
REMARK  208  A    between atoms: _513  and  _515
REMARK  209  A    between atoms: _515  and  _516
REMARK  210  A    between atoms: _515  and  _518
REMARK  211  A    between atoms: _518  and  _519
REMARK  212  A    between atoms: _522  and  _524
REMARK  213  A    between atoms: _524  and  _525
REMARK  214  A    between atoms: _524  and  _527
REMARK  215  A    between atoms: _527  and  _528
REMARK  216  A    between atoms: _531  and  _533
REMARK  217  A    between atoms: _533  and  _534
REMARK  218  A    between atoms: _533  and  _536
REMARK  219  A    between atoms: _536  and  _537
REMARK  220  A    between atoms: _539  and  _541
REMARK  221  A    between atoms: _541  and  _542
REMARK  222  A    between atoms: _541  and  _544
REMARK  223  A    between atoms: _544  and  _545
REMARK  224  A    between atoms: _550  and  _552
REMARK  225  A    between atoms: _552  and  _553
REMARK  226  A    between atoms: _552  and  _555
REMARK  227  A    between atoms: _555  and  _556
REMARK  228  A    between atoms: _559  and  _561
REMARK  229  A    between atoms: _561  and  _562
REMARK  230  A    between atoms: _565  and  _567
REMARK  231  A    between atoms: _567  and  _568
REMARK  232  A    between atoms: _567  and  _570
REMARK  233  A    between atoms: _570  and  _571
REMARK  234  A    between atoms: _571  and  _572
REMARK  235  A    between atoms: _572  and  _573
REMARK  236  A    between atoms: _573  and  _574
REMARK  237  A    between atoms: _578  and  _580
REMARK  238  A    between atoms: _580  and  _581
REMARK  239  A    between atoms: _580  and  _583
REMARK  240  A    between atoms: _583  and  _584
REMARK  241  A    between atoms: _587  and  _589
REMARK  242  A    between atoms: _589  and  _590
REMARK  243  A    between atoms: _589  and  _592
REMARK  244  A    between atoms: _592  and  _593
REMARK  245  A    between atoms: _596  and  _598
REMARK  246  A    between atoms: _598  and  _599
REMARK  247  A    between atoms: _598  and  _601
REMARK  248  A    between atoms: _601  and  _602
REMARK  249  A    between atoms: _605  and  _607
REMARK  250  A    between atoms: _607  and  _608
REMARK  251  A    between atoms: _607  and  _610
REMARK  252  A    between atoms: _610  and  _611
REMARK  253  A    between atoms: _617  and  _619
REMARK  254  A    between atoms: _619  and  _620
REMARK  255  A    between atoms: _622  and  _624
REMARK  256  A    between atoms: _624  and  _625
REMARK  257  A    between atoms: _624  and  _627
REMARK  258  A    between atoms: _627  and  _628
REMARK  259  A    between atoms: _631  and  _633
REMARK  260  A    between atoms: _633  and  _634
REMARK  261  A    between atoms: _633  and  _636
REMARK  262  A    between atoms: _636  and  _637
REMARK                            x       y       z     vdW  Elec       q    Type
REMARK                         _______ _______ _______ _____ _____    ______ ____
ROOT
ATOM      1  O   HOH     1      38.867  19.618  43.348  0.00  0.00    +0.000 OA
ENDROOT
TORSDOF 0
REMARK  Name = ../refined-set-2016/3e93/3e93_pocket.pdb
REMARK  262 active torsions:
REMARK  status: ('A' for Active; 'I' for Inactive)
REMARK    1  A    between atoms: _1  and  _3
REMARK    2  A    between atoms: _3  and  _4
REMARK    3  A    between atoms: _3  and  _6
REMARK    4  A    between atoms: _6  and  _7
REMARK    5  A    between atoms: _17  and  _19
REMARK    6  A    between atoms: _19  and  _20
REMARK    7  A    between atoms: _19  and  _22
REMARK    8  A    between atoms: _22  and  _23
REMARK    9  A    between atoms: _26  and  _27
REMARK   10  A    between atoms: _32  and  _34
REMARK   11  A    between atoms: _34  and  _35
REMARK   12  A    between atoms: _34  and  _37
REMARK   13  A    between atoms: _40  and  _42
REMARK   14  A    between atoms: _42  and  _43
REMARK   15  A    between atoms: _45  and  _47
REMARK   16  A    between atoms: _47  and  _48
REMARK   17  A    between atoms: _47  and  _50
REMARK   18  A    between atoms: _50  and  _51
REMARK   19  A    between atoms: _53  and  _55
REMARK   20  A    between atoms: _55  and  _56
REMARK   21  A    between atoms: _55  and  _58
REMARK   22  A    between atoms: _58  and  _59
REMARK   23  A    between atoms: _61  and  _63
REMARK   24  A    between atoms: _63  and  _64
REMARK   25  A    between atoms: _63  and  _66
REMARK   26  A    between atoms: _69  and  _71
REMARK   27  A    between atoms: _71  and  _72
REMARK   28  A    between atoms: _71  and  _74
REMARK   29  A    between atoms: _76  and  _78
REMARK   30  A    between atoms: _78  and  _79
REMARK   31  A    between atoms: _82  and  _84
REMARK   32  A    between atoms: _84  and  _85
REMARK   33  A    between atoms: _88  and  _90
REMARK   34  A    between atoms: _90  and  _91
REMARK   35  A    between atoms: _90  and  _93
REMARK   36  A    between atoms: _93  and  _94
REMARK   37  A    between atoms: _94  and  _95
REMARK   38  A    between atoms: _95  and  _96
REMARK   39  A    between atoms: _105  and  _107
REMARK   40  A    between atoms: _107  and  _108
REMARK   41  A    between atoms: _107  and  _110
REMARK   42  A    between atoms: _113  and  _115
REMARK   43  A    between atoms: _115  and  _116
REMARK   44  A    between atoms: _119  and  _121
REMARK   45  A    between atoms: _121  and  _122
REMARK   46  A    between atoms: _121  and  _124
REMARK   47  A    between atoms: _127  and  _129
REMARK   48  A    between atoms: _129  and  _130
REMARK   49  A    between atoms: _129  and  _132
REMARK   50  A    between atoms: _132  and  _133
REMARK   51  A    between atoms: _133  and  _134
REMARK   52  A    between atoms: _134  and  _135
REMARK   53  A    between atoms: _135  and  _136
REMARK   54  A    between atoms: _140  and  _142
REMARK   55  A    between atoms: _142  and  _143
REMARK   56  A    between atoms: _142  and  _145
REMARK   57  A    between atoms: _145  and  _146
REMARK   58  A    between atoms: _146  and  _147
REMARK   59  A    between atoms: _147  and  _148
REMARK   60  A    between atoms: _148  and  _149
REMARK   61  A    between atoms: _153  and  _155
REMARK   62  A    between atoms: _155  and  _156
REMARK   63  A    between atoms: _155  and  _158
REMARK   64  A    between atoms: _158  and  _159
REMARK   65  A    between atoms: _162  and  _164
REMARK   66  A    between atoms: _164  and  _165
REMARK   67  A    between atoms: _164  and  _167
REMARK   68  A    between atoms: _167  and  _168
REMARK   69  A    between atoms: _168  and  _169
REMARK   70  A    between atoms: _169  and  _170
REMARK   71  A    between atoms: _179  and  _181
REMARK   72  A    between atoms: _181  and  _182
REMARK   73  A    between atoms: _181  and  _184
REMARK   74  A    between atoms: _184  and  _185
REMARK   75  A    between atoms: _185  and  _186
REMARK   76  A    between atoms: _186  and  _187
REMARK   77  A    between atoms: _196  and  _198
REMARK   78  A    between atoms: _198  and  _199
REMARK   79  A    between atoms: _198  and  _201
REMARK   80  A    between atoms: _201  and  _202
REMARK   81  A    between atoms: _202  and  _203
REMARK   82  A    between atoms: _206  and  _208
REMARK   83  A    between atoms: _208  and  _209
REMARK   84  A    between atoms: _208  and  _211
REMARK   85  A    between atoms: _211  and  _212
REMARK   86  A    between atoms: _215  and  _217
REMARK   87  A    between atoms: _217  and  _218
REMARK   88  A    between atoms: _217  and  _220
REMARK   89  A    between atoms: _220  and  _221
REMARK   90  A    between atoms: _224  and  _226
REMARK   91  A    between atoms: _226  and  _227
REMARK   92  A    between atoms: _226  and  _229
REMARK   93  A    between atoms: _229  and  _230
REMARK   94  A    between atoms: _233  and  _235
REMARK   95  A    between atoms: _235  and  _236
REMARK   96  A    between atoms: _235  and  _238
REMARK   97  A    between atoms: _238  and  _239
REMARK   98  A    between atoms: _239  and  _240
REMARK   99  A    between atoms: _242  and  _244
REMARK  100  A    between atoms: _244  and  _245
REMARK  101  A    between atoms: _244  and  _247
REMARK  102  A    between atoms: _247  and  _248
REMARK  103  A    between atoms: _253  and  _255
REMARK  104  A    between atoms: _255  and  _256
REMARK  105  A    between atoms: _255  and  _258
REMARK  106  A    between atoms: _258  and  _259
REMARK  107  A    between atoms: _264  and  _266
REMARK  108  A    between atoms: _266  and  _267
REMARK  109  A    between atoms: _266  and  _269
REMARK  110  A    between atoms: _272  and  _274
REMARK  111  A    between atoms: _274  and  _275
REMARK  112  A    between atoms: _274  and  _277
REMARK  113  A    between atoms: _277  and  _278
REMARK  114  A    between atoms: _281  and  _283
REMARK  115  A    between atoms: _283  and  _284
REMARK  116  A    between atoms: _286  and  _288
REMARK  117  A    between atoms: _288  and  _289
REMARK  118  A    between atoms: _288  and  _291
REMARK  119  A    between atoms: _291  and  _292
REMARK  120  A    between atoms: _295  and  _297
REMARK  121  A    between atoms: _297  and  _298
REMARK  122  A    between atoms: _297  and  _300
REMARK  123  A    between atoms: _300  and  _301
REMARK  124  A    between atoms: _304  and  _306
REMARK  125  A    between atoms: _306  and  _307
REMARK  126  A    between atoms: _306  and  _309
REMARK  127  A    between atoms: _309  and  _310
REMARK  128  A    between atoms: _313  and  _315
REMARK  129  A    between atoms: _315  and  _316
REMARK  130  A    between atoms: _315  and  _318
REMARK  131  A    between atoms: _318  and  _319
REMARK  132  A    between atoms: _324  and  _325
REMARK  133  A    between atoms: _327  and  _329
REMARK  134  A    between atoms: _329  and  _330
REMARK  135  A    between atoms: _329  and  _332
REMARK  136  A    between atoms: _332  and  _333
REMARK  137  A    between atoms: _336  and  _338
REMARK  138  A    between atoms: _338  and  _339
REMARK  139  A    between atoms: _338  and  _341
REMARK  140  A    between atoms: _344  and  _346
REMARK  141  A    between atoms: _346  and  _347
REMARK  142  A    between atoms: _346  and  _349
REMARK  143  A    between atoms: _349  and  _350
REMARK  144  A    between atoms: _353  and  _355
REMARK  145  A    between atoms: _355  and  _356
REMARK  146  A    between atoms: _355  and  _358
REMARK  147  A    between atoms: _358  and  _359
REMARK  148  A    between atoms: _364  and  _366
REMARK  149  A    between atoms: _366  and  _367
REMARK  150  A    between atoms: _366  and  _369
REMARK  151  A    between atoms: _369  and  _370
REMARK  152  A    between atoms: _373  and  _375
REMARK  153  A    between atoms: _375  and  _376
REMARK  154  A    between atoms: _375  and  _378
REMARK  155  A    between atoms: _378  and  _379
REMARK  156  A    between atoms: _379  and  _380
REMARK  157  A    between atoms: _382  and  _384
REMARK  158  A    between atoms: _384  and  _385
REMARK  159  A    between atoms: _387  and  _389
REMARK  160  A    between atoms: _389  and  _390
REMARK  161  A    between atoms: _393  and  _395
REMARK  162  A    between atoms: _395  and  _396
REMARK  163  A    between atoms: _395  and  _398
REMARK  164  A    between atoms: _398  and  _399
REMARK  165  A    between atoms: _402  and  _404
REMARK  166  A    between atoms: _404  and  _405
REMARK  167  A    between atoms: _404  and  _407
REMARK  168  A    between atoms: _407  and  _408
REMARK  169  A    between atoms: _413  and  _415
REMARK  170  A    between atoms: _415  and  _416
REMARK  171  A    between atoms: _418  and  _420
REMARK  172  A    between atoms: _420  and  _421
REMARK  173  A    between atoms: _420  and  _423
REMARK  174  A    between atoms: _423  and  _424
REMARK  175  A    between atoms: _427  and  _429
REMARK  176  A    between atoms: _429  and  _430
REMARK  177  A    between atoms: _429  and  _432
REMARK  178  A    between atoms: _432  and  _433
REMARK  179  A    between atoms: _438  and  _439
REMARK  180  A    between atoms: _441  and  _443
REMARK  181  A    between atoms: _443  and  _444
REMARK  182  A    between atoms: _443  and  _446
REMARK  183  A    between atoms: _446  and  _447
REMARK  184  A    between atoms: _450  and  _452
REMARK  185  A    between atoms: _452  and  _453
REMARK  186  A    between atoms: _452  and  _455
REMARK  187  A    between atoms: _455  and  _456
REMARK  188  A    between atoms: _461  and  _463
REMARK  189  A    between atoms: _463  and  _464
REMARK  190  A    between atoms: _467  and  _469
REMARK  191  A    between atoms: _469  and  _470
REMARK  192  A    between atoms: _469  and  _472
REMARK  193  A    between atoms: _472  and  _473
REMARK  194  A    between atoms: _476  and  _478
REMARK  195  A    between atoms: _478  and  _479
REMARK  196  A    between atoms: _478  and  _481
REMARK  197  A    between atoms: _481  and  _482
REMARK  198  A    between atoms: _485  and  _487
REMARK  199  A    between atoms: _487  and  _488
REMARK  200  A    between atoms: _487  and  _490
REMARK  201  A    between atoms: _490  and  _491
REMARK  202  A    between atoms: _496  and  _498
REMARK  203  A    between atoms: _498  and  _499
REMARK  204  A    between atoms: _498  and  _501
REMARK  205  A    between atoms: _501  and  _502
REMARK  206  A    between atoms: _502  and  _503
REMARK  207  A    between atoms: _503  and  _504
REMARK  208  A    between atoms: _513  and  _515
REMARK  209  A    between atoms: _515  and  _516
REMARK  210  A    between atoms: _515  and  _518
REMARK  211  A    between atoms: _518  and  _519
REMARK  212  A    between atoms: _522  and  _524
REMARK  213  A    between atoms: _524  and  _525
REMARK  214  A    between atoms: _524  and  _527
REMARK  215  A    between atoms: _527  and  _528
REMARK  216  A    between atoms: _531  and  _533
REMARK  217  A    between atoms: _533  and  _534
REMARK  218  A    between atoms: _533  and  _536
REMARK  219  A    between atoms: _536  and  _537
REMARK  220  A    between atoms: _539  and  _541
REMARK  221  A    between atoms: _541  and  _542
REMARK  222  A    between atoms: _541  and  _544
REMARK  223  A    between atoms: _544  and  _545
REMARK  224  A    between atoms: _550  and  _552
REMARK  225  A    between atoms: _552  and  _553
REMARK  226  A    between atoms: _552  and  _555
REMARK  227  A    between atoms: _555  and  _556
REMARK  228  A    between atoms: _559  and  _561
REMARK  229  A    between atoms: _561  and  _562
REMARK  230  A    between atoms: _565  and  _567
REMARK  231  A    between atoms: _567  and  _568
REMARK  232  A    between atoms: _567  and  _570
REMARK  233  A    between atoms: _570  and  _571
REMARK  234  A    between atoms: _571  and  _572
REMARK  235  A    between atoms: _572  and  _573
REMARK  236  A    between atoms: _573  and  _574
REMARK  237  A    between atoms: _578  and  _580
REMARK  238  A    between atoms: _580  and  _581
REMARK  239  A    between atoms: _580  and  _583
REMARK  240  A    between atoms: _583  and  _584
REMARK  241  A    between atoms: _587  and  _589
REMARK  242  A    between atoms: _589  and  _590
REMARK  243  A    between atoms: _589  and  _592
REMARK  244  A    between atoms: _592  and  _593
REMARK  245  A    between atoms: _596  and  _598
REMARK  246  A    between atoms: _598  and  _599
REMARK  247  A    between atoms: _598  and  _601
REMARK  248  A    between atoms: _601  and  _602
REMARK  249  A    between atoms: _605  and  _607
REMARK  250  A    between atoms: _607  and  _608
REMARK  251  A    between atoms: _607  and  _610
REMARK  252  A    between atoms: _610  and  _611
REMARK  253  A    between atoms: _617  and  _619
REMARK  254  A    between atoms: _619  and  _620
REMARK  255  A    between atoms: _622  and  _624
REMARK  256  A    between atoms: _624  and  _625
REMARK  257  A    between atoms: _624  and  _627
REMARK  258  A    between atoms: _627  and  _628
REMARK  259  A    between atoms: _631  and  _633
REMARK  260  A    between atoms: _633  and  _634
REMARK  261  A    between atoms: _633  and  _636
REMARK  262  A    between atoms: _636  and  _637
REMARK                            x       y       z     vdW  Elec       q    Type
REMARK                         _______ _______ _______ _____ _____    ______ ____
ROOT
ATOM      1  O   HOH     1      41.013  25.330  33.837  0.00  0.00    +0.000 OA
ENDROOT
TORSDOF 0
REMARK  Name = ../refined-set-2016/3e93/3e93_pocket.pdb
REMARK  262 active torsions:
REMARK  status: ('A' for Active; 'I' for Inactive)
REMARK    1  A    between atoms: _1  and  _3
REMARK    2  A    between atoms: _3  and  _4
REMARK    3  A    between atoms: _3  and  _6
REMARK    4  A    between atoms: _6  and  _7
REMARK    5  A    between atoms: _17  and  _19
REMARK    6  A    between atoms: _19  and  _20
REMARK    7  A    between atoms: _19  and  _22
REMARK    8  A    between atoms: _22  and  _23
REMARK    9  A    between atoms: _26  and  _27
REMARK   10  A    between atoms: _32  and  _34
REMARK   11  A    between atoms: _34  and  _35
REMARK   12  A    between atoms: _34  and  _37
REMARK   13  A    between atoms: _40  and  _42
REMARK   14  A    between atoms: _42  and  _43
REMARK   15  A    between atoms: _45  and  _47
REMARK   16  A    between atoms: _47  and  _48
REMARK   17  A    between atoms: _47  and  _50
REMARK   18  A    between atoms: _50  and  _51
REMARK   19  A    between atoms: _53  and  _55
REMARK   20  A    between atoms: _55  and  _56
REMARK   21  A    between atoms: _55  and  _58
REMARK   22  A    between atoms: _58  and  _59
REMARK   23  A    between atoms: _61  and  _63
REMARK   24  A    between atoms: _63  and  _64
REMARK   25  A    between atoms: _63  and  _66
REMARK   26  A    between atoms: _69  and  _71
REMARK   27  A    between atoms: _71  and  _72
REMARK   28  A    between atoms: _71  and  _74
REMARK   29  A    between atoms: _76  and  _78
REMARK   30  A    between atoms: _78  and  _79
REMARK   31  A    between atoms: _82  and  _84
REMARK   32  A    between atoms: _84  and  _85
REMARK   33  A    between atoms: _88  and  _90
REMARK   34  A    between atoms: _90  and  _91
REMARK   35  A    between atoms: _90  and  _93
REMARK   36  A    between atoms: _93  and  _94
REMARK   37  A    between atoms: _94  and  _95
REMARK   38  A    between atoms: _95  and  _96
REMARK   39  A    between atoms: _105  and  _107
REMARK   40  A    between atoms: _107  and  _108
REMARK   41  A    between atoms: _107  and  _110
REMARK   42  A    between atoms: _113  and  _115
REMARK   43  A    between atoms: _115  and  _116
REMARK   44  A    between atoms: _119  and  _121
REMARK   45  A    between atoms: _121  and  _122
REMARK   46  A    between atoms: _121  and  _124
REMARK   47  A    between atoms: _127  and  _129
REMARK   48  A    between atoms: _129  and  _130
REMARK   49  A    between atoms: _129  and  _132
REMARK   50  A    between atoms: _132  and  _133
REMARK   51  A    between atoms: _133  and  _134
REMARK   52  A    between atoms: _134  and  _135
REMARK   53  A    between atoms: _135  and  _136
REMARK   54  A    between atoms: _140  and  _142
REMARK   55  A    between atoms: _142  and  _143
REMARK   56  A    between atoms: _142  and  _145
REMARK   57  A    between atoms: _145  and  _146
REMARK   58  A    between atoms: _146  and  _147
REMARK   59  A    between atoms: _147  and  _148
REMARK   60  A    between atoms: _148  and  _149
REMARK   61  A    between atoms: _153  and  _155
REMARK   62  A    between atoms: _155  and  _156
REMARK   63  A    between atoms: _155  and  _158
REMARK   64  A    between atoms: _158  and  _159
REMARK   65  A    between atoms: _162  and  _164
REMARK   66  A    between atoms: _164  and  _165
REMARK   67  A    between atoms: _164  and  _167
REMARK   68  A    between atoms: _167  and  _168
REMARK   69  A    between atoms: _168  and  _169
REMARK   70  A    between atoms: _169  and  _170
REMARK   71  A    between atoms: _179  and  _181
REMARK   72  A    between atoms: _181  and  _182
REMARK   73  A    between atoms: _181  and  _184
REMARK   74  A    between atoms: _184  and  _185
REMARK   75  A    between atoms: _185  and  _186
REMARK   76  A    between atoms: _186  and  _187
REMARK   77  A    between atoms: _196  and  _198
REMARK   78  A    between atoms: _198  and  _199
REMARK   79  A    between atoms: _198  and  _201
REMARK   80  A    between atoms: _201  and  _202
REMARK   81  A    between atoms: _202  and  _203
REMARK   82  A    between atoms: _206  and  _208
REMARK   83  A    between atoms: _208  and  _209
REMARK   84  A    between atoms: _208  and  _211
REMARK   85  A    between atoms: _211  and  _212
REMARK   86  A    between atoms: _215  and  _217
REMARK   87  A    between atoms: _217  and  _218
REMARK   88  A    between atoms: _217  and  _220
REMARK   89  A    between atoms: _220  and  _221
REMARK   90  A    between atoms: _224  and  _226
REMARK   91  A    between atoms: _226  and  _227
REMARK   92  A    between atoms: _226  and  _229
REMARK   93  A    between atoms: _229  and  _230
REMARK   94  A    between atoms: _233  and  _235
REMARK   95  A    between atoms: _235  and  _236
REMARK   96  A    between atoms: _235  and  _238
REMARK   97  A    between atoms: _238  and  _239
REMARK   98  A    between atoms: _239  and  _240
REMARK   99  A    between atoms: _242  and  _244
REMARK  100  A    between atoms: _244  and  _245
REMARK  101  A    between atoms: _244  and  _247
REMARK  102  A    between atoms: _247  and  _248
REMARK  103  A    between atoms: _253  and  _255
REMARK  104  A    between atoms: _255  and  _256
REMARK  105  A    between atoms: _255  and  _258
REMARK  106  A    between atoms: _258  and  _259
REMARK  107  A    between atoms: _264  and  _266
REMARK  108  A    between atoms: _266  and  _267
REMARK  109  A    between atoms: _266  and  _269
REMARK  110  A    between atoms: _272  and  _274
REMARK  111  A    between atoms: _274  and  _275
REMARK  112  A    between atoms: _274  and  _277
REMARK  113  A    between atoms: _277  and  _278
REMARK  114  A    between atoms: _281  and  _283
REMARK  115  A    between atoms: _283  and  _284
REMARK  116  A    between atoms: _286  and  _288
REMARK  117  A    between atoms: _288  and  _289
REMARK  118  A    between atoms: _288  and  _291
REMARK  119  A    between atoms: _291  and  _292
REMARK  120  A    between atoms: _295  and  _297
REMARK  121  A    between atoms: _297  and  _298
REMARK  122  A    between atoms: _297  and  _300
REMARK  123  A    between atoms: _300  and  _301
REMARK  124  A    between atoms: _304  and  _306
REMARK  125  A    between atoms: _306  and  _307
REMARK  126  A    between atoms: _306  and  _309
REMARK  127  A    between atoms: _309  and  _310
REMARK  128  A    between atoms: _313  and  _315
REMARK  129  A    between atoms: _315  and  _316
REMARK  130  A    between atoms: _315  and  _318
REMARK  131  A    between atoms: _318  and  _319
REMARK  132  A    between atoms: _324  and  _325
REMARK  133  A    between atoms: _327  and  _329
REMARK  134  A    between atoms: _329  and  _330
REMARK  135  A    between atoms: _329  and  _332
REMARK  136  A    between atoms: _332  and  _333
REMARK  137  A    between atoms: _336  and  _338
REMARK  138  A    between atoms: _338  and  _339
REMARK  139  A    between atoms: _338  and  _341
REMARK  140  A    between atoms: _344  and  _346
REMARK  141  A    between atoms: _346  and  _347
REMARK  142  A    between atoms: _346  and  _349
REMARK  143  A    between atoms: _349  and  _350
REMARK  144  A    between atoms: _353  and  _355
REMARK  145  A    between atoms: _355  and  _356
REMARK  146  A    between atoms: _355  and  _358
REMARK  147  A    between atoms: _358  and  _359
REMARK  148  A    between atoms: _364  and  _366
REMARK  149  A    between atoms: _366  and  _367
REMARK  150  A    between atoms: _366  and  _369
REMARK  151  A    between atoms: _369  and  _370
REMARK  152  A    between atoms: _373  and  _375
REMARK  153  A    between atoms: _375  and  _376
REMARK  154  A    between atoms: _375  and  _378
REMARK  155  A    between atoms: _378  and  _379
REMARK  156  A    between atoms: _379  and  _380
REMARK  157  A    between atoms: _382  and  _384
REMARK  158  A    between atoms: _384  and  _385
REMARK  159  A    between atoms: _387  and  _389
REMARK  160  A    between atoms: _389  and  _390
REMARK  161  A    between atoms: _393  and  _395
REMARK  162  A    between atoms: _395  and  _396
REMARK  163  A    between atoms: _395  and  _398
REMARK  164  A    between atoms: _398  and  _399
REMARK  165  A    between atoms: _402  and  _404
REMARK  166  A    between atoms: _404  and  _405
REMARK  167  A    between atoms: _404  and  _407
REMARK  168  A    between atoms: _407  and  _408
REMARK  169  A    between atoms: _413  and  _415
REMARK  170  A    between atoms: _415  and  _416
REMARK  171  A    between atoms: _418  and  _420
REMARK  172  A    between atoms: _420  and  _421
REMARK  173  A    between atoms: _420  and  _423
REMARK  174  A    between atoms: _423  and  _424
REMARK  175  A    between atoms: _427  and  _429
REMARK  176  A    between atoms: _429  and  _430
REMARK  177  A    between atoms: _429  and  _432
REMARK  178  A    between atoms: _432  and  _433
REMARK  179  A    between atoms: _438  and  _439
REMARK  180  A    between atoms: _441  and  _443
REMARK  181  A    between atoms: _443  and  _444
REMARK  182  A    between atoms: _443  and  _446
REMARK  183  A    between atoms: _446  and  _447
REMARK  184  A    between atoms: _450  and  _452
REMARK  185  A    between atoms: _452  and  _453
REMARK  186  A    between atoms: _452  and  _455
REMARK  187  A    between atoms: _455  and  _456
REMARK  188  A    between atoms: _461  and  _463
REMARK  189  A    between atoms: _463  and  _464
REMARK  190  A    between atoms: _467  and  _469
REMARK  191  A    between atoms: _469  and  _470
REMARK  192  A    between atoms: _469  and  _472
REMARK  193  A    between atoms: _472  and  _473
REMARK  194  A    between atoms: _476  and  _478
REMARK  195  A    between atoms: _478  and  _479
REMARK  196  A    between atoms: _478  and  _481
REMARK  197  A    between atoms: _481  and  _482
REMARK  198  A    between atoms: _485  and  _487
REMARK  199  A    between atoms: _487  and  _488
REMARK  200  A    between atoms: _487  and  _490
REMARK  201  A    between atoms: _490  and  _491
REMARK  202  A    between atoms: _496  and  _498
REMARK  203  A    between atoms: _498  and  _499
REMARK  204  A    between atoms: _498  and  _501
REMARK  205  A    between atoms: _501  and  _502
REMARK  206  A    between atoms: _502  and  _503
REMARK  207  A    between atoms: _503  and  _504
REMARK  208  A    between atoms: _513  and  _515
REMARK  209  A    between atoms: _515  and  _516
REMARK  210  A    between atoms: _515  and  _518
REMARK  211  A    between atoms: _518  and  _519
REMARK  212  A    between atoms: _522  and  _524
REMARK  213  A    between atoms: _524  and  _525
REMARK  214  A    between atoms: _524  and  _527
REMARK  215  A    between atoms: _527  and  _528
REMARK  216  A    between atoms: _531  and  _533
REMARK  217  A    between atoms: _533  and  _534
REMARK  218  A    between atoms: _533  and  _536
REMARK  219  A    between atoms: _536  and  _537
REMARK  220  A    between atoms: _539  and  _541
REMARK  221  A    between atoms: _541  and  _542
REMARK  222  A    between atoms: _541  and  _544
REMARK  223  A    between atoms: _544  and  _545
REMARK  224  A    between atoms: _550  and  _552
REMARK  225  A    between atoms: _552  and  _553
REMARK  226  A    between atoms: _552  and  _555
REMARK  227  A    between atoms: _555  and  _556
REMARK  228  A    between atoms: _559  and  _561
REMARK  229  A    between atoms: _561  and  _562
REMARK  230  A    between atoms: _565  and  _567
REMARK  231  A    between atoms: _567  and  _568
REMARK  232  A    between atoms: _567  and  _570
REMARK  233  A    between atoms: _570  and  _571
REMARK  234  A    between atoms: _571  and  _572
REMARK  235  A    between atoms: _572  and  _573
REMARK  236  A    between atoms: _573  and  _574
REMARK  237  A    between atoms: _578  and  _580
REMARK  238  A    between atoms: _580  and  _581
REMARK  239  A    between atoms: _580  and  _583
REMARK  240  A    between atoms: _583  and  _584
REMARK  241  A    between atoms: _587  and  _589
REMARK  242  A    between atoms: _589  and  _590
REMARK  243  A    between atoms: _589  and  _592
REMARK  244  A    between atoms: _592  and  _593
REMARK  245  A    between atoms: _596  and  _598
REMARK  246  A    between atoms: _598  and  _599
REMARK  247  A    between atoms: _598  and  _601
REMARK  248  A    between atoms: _601  and  _602
REMARK  249  A    between atoms: _605  and  _607
REMARK  250  A    between atoms: _607  and  _608
REMARK  251  A    between atoms: _607  and  _610
REMARK  252  A    between atoms: _610  and  _611
REMARK  253  A    between atoms: _617  and  _619
REMARK  254  A    between atoms: _619  and  _620
REMARK  255  A    between atoms: _622  and  _624
REMARK  256  A    between atoms: _624  and  _625
REMARK  257  A    between atoms: _624  and  _627
REMARK  258  A    between atoms: _627  and  _628
REMARK  259  A    between atoms: _631  and  _633
REMARK  260  A    between atoms: _633  and  _634
REMARK  261  A    between atoms: _633  and  _636
REMARK  262  A    between atoms: _636  and  _637
REMARK                            x       y       z     vdW  Elec       q    Type
REMARK                         _______ _______ _______ _____ _____    ______ ____
ROOT
ATOM      1  O   HOH     1      39.994  22.210  38.020  0.00  0.00    +0.000 OA
ENDROOT
TORSDOF 0
REMARK  Name = ../refined-set-2016/3e93/3e93_pocket.pdb
REMARK  262 active torsions:
REMARK  status: ('A' for Active; 'I' for Inactive)
REMARK    1  A    between atoms: _1  and  _3
REMARK    2  A    between atoms: _3  and  _4
REMARK    3  A    between atoms: _3  and  _6
REMARK    4  A    between atoms: _6  and  _7
REMARK    5  A    between atoms: _17  and  _19
REMARK    6  A    between atoms: _19  and  _20
REMARK    7  A    between atoms: _19  and  _22
REMARK    8  A    between atoms: _22  and  _23
REMARK    9  A    between atoms: _26  and  _27
REMARK   10  A    between atoms: _32  and  _34
REMARK   11  A    between atoms: _34  and  _35
REMARK   12  A    between atoms: _34  and  _37
REMARK   13  A    between atoms: _40  and  _42
REMARK   14  A    between atoms: _42  and  _43
REMARK   15  A    between atoms: _45  and  _47
REMARK   16  A    between atoms: _47  and  _48
REMARK   17  A    between atoms: _47  and  _50
REMARK   18  A    between atoms: _50  and  _51
REMARK   19  A    between atoms: _53  and  _55
REMARK   20  A    between atoms: _55  and  _56
REMARK   21  A    between atoms: _55  and  _58
REMARK   22  A    between atoms: _58  and  _59
REMARK   23  A    between atoms: _61  and  _63
REMARK   24  A    between atoms: _63  and  _64
REMARK   25  A    between atoms: _63  and  _66
REMARK   26  A    between atoms: _69  and  _71
REMARK   27  A    between atoms: _71  and  _72
REMARK   28  A    between atoms: _71  and  _74
REMARK   29  A    between atoms: _76  and  _78
REMARK   30  A    between atoms: _78  and  _79
REMARK   31  A    between atoms: _82  and  _84
REMARK   32  A    between atoms: _84  and  _85
REMARK   33  A    between atoms: _88  and  _90
REMARK   34  A    between atoms: _90  and  _91
REMARK   35  A    between atoms: _90  and  _93
REMARK   36  A    between atoms: _93  and  _94
REMARK   37  A    between atoms: _94  and  _95
REMARK   38  A    between atoms: _95  and  _96
REMARK   39  A    between atoms: _105  and  _107
REMARK   40  A    between atoms: _107  and  _108
REMARK   41  A    between atoms: _107  and  _110
REMARK   42  A    between atoms: _113  and  _115
REMARK   43  A    between atoms: _115  and  _116
REMARK   44  A    between atoms: _119  and  _121
REMARK   45  A    between atoms: _121  and  _122
REMARK   46  A    between atoms: _121  and  _124
REMARK   47  A    between atoms: _127  and  _129
REMARK   48  A    between atoms: _129  and  _130
REMARK   49  A    between atoms: _129  and  _132
REMARK   50  A    between atoms: _132  and  _133
REMARK   51  A    between atoms: _133  and  _134
REMARK   52  A    between atoms: _134  and  _135
REMARK   53  A    between atoms: _135  and  _136
REMARK   54  A    between atoms: _140  and  _142
REMARK   55  A    between atoms: _142  and  _143
REMARK   56  A    between atoms: _142  and  _145
REMARK   57  A    between atoms: _145  and  _146
REMARK   58  A    between atoms: _146  and  _147
REMARK   59  A    between atoms: _147  and  _148
REMARK   60  A    between atoms: _148  and  _149
REMARK   61  A    between atoms: _153  and  _155
REMARK   62  A    between atoms: _155  and  _156
REMARK   63  A    between atoms: _155  and  _158
REMARK   64  A    between atoms: _158  and  _159
REMARK   65  A    between atoms: _162  and  _164
REMARK   66  A    between atoms: _164  and  _165
REMARK   67  A    between atoms: _164  and  _167
REMARK   68  A    between atoms: _167  and  _168
REMARK   69  A    between atoms: _168  and  _169
REMARK   70  A    between atoms: _169  and  _170
REMARK   71  A    between atoms: _179  and  _181
REMARK   72  A    between atoms: _181  and  _182
REMARK   73  A    between atoms: _181  and  _184
REMARK   74  A    between atoms: _184  and  _185
REMARK   75  A    between atoms: _185  and  _186
REMARK   76  A    between atoms: _186  and  _187
REMARK   77  A    between atoms: _196  and  _198
REMARK   78  A    between atoms: _198  and  _199
REMARK   79  A    between atoms: _198  and  _201
REMARK   80  A    between atoms: _201  and  _202
REMARK   81  A    between atoms: _202  and  _203
REMARK   82  A    between atoms: _206  and  _208
REMARK   83  A    between atoms: _208  and  _209
REMARK   84  A    between atoms: _208  and  _211
REMARK   85  A    between atoms: _211  and  _212
REMARK   86  A    between atoms: _215  and  _217
REMARK   87  A    between atoms: _217  and  _218
REMARK   88  A    between atoms: _217  and  _220
REMARK   89  A    between atoms: _220  and  _221
REMARK   90  A    between atoms: _224  and  _226
REMARK   91  A    between atoms: _226  and  _227
REMARK   92  A    between atoms: _226  and  _229
REMARK   93  A    between atoms: _229  and  _230
REMARK   94  A    between atoms: _233  and  _235
REMARK   95  A    between atoms: _235  and  _236
REMARK   96  A    between atoms: _235  and  _238
REMARK   97  A    between atoms: _238  and  _239
REMARK   98  A    between atoms: _239  and  _240
REMARK   99  A    between atoms: _242  and  _244
REMARK  100  A    between atoms: _244  and  _245
REMARK  101  A    between atoms: _244  and  _247
REMARK  102  A    between atoms: _247  and  _248
REMARK  103  A    between atoms: _253  and  _255
REMARK  104  A    between atoms: _255  and  _256
REMARK  105  A    between atoms: _255  and  _258
REMARK  106  A    between atoms: _258  and  _259
REMARK  107  A    between atoms: _264  and  _266
REMARK  108  A    between atoms: _266  and  _267
REMARK  109  A    between atoms: _266  and  _269
REMARK  110  A    between atoms: _272  and  _274
REMARK  111  A    between atoms: _274  and  _275
REMARK  112  A    between atoms: _274  and  _277
REMARK  113  A    between atoms: _277  and  _278
REMARK  114  A    between atoms: _281  and  _283
REMARK  115  A    between atoms: _283  and  _284
REMARK  116  A    between atoms: _286  and  _288
REMARK  117  A    between atoms: _288  and  _289
REMARK  118  A    between atoms: _288  and  _291
REMARK  119  A    between atoms: _291  and  _292
REMARK  120  A    between atoms: _295  and  _297
REMARK  121  A    between atoms: _297  and  _298
REMARK  122  A    between atoms: _297  and  _300
REMARK  123  A    between atoms: _300  and  _301
REMARK  124  A    between atoms: _304  and  _306
REMARK  125  A    between atoms: _306  and  _307
REMARK  126  A    between atoms: _306  and  _309
REMARK  127  A    between atoms: _309  and  _310
REMARK  128  A    between atoms: _313  and  _315
REMARK  129  A    between atoms: _315  and  _316
REMARK  130  A    between atoms: _315  and  _318
REMARK  131  A    between atoms: _318  and  _319
REMARK  132  A    between atoms: _324  and  _325
REMARK  133  A    between atoms: _327  and  _329
REMARK  134  A    between atoms: _329  and  _330
REMARK  135  A    between atoms: _329  and  _332
REMARK  136  A    between atoms: _332  and  _333
REMARK  137  A    between atoms: _336  and  _338
REMARK  138  A    between atoms: _338  and  _339
REMARK  139  A    between atoms: _338  and  _341
REMARK  140  A    between atoms: _344  and  _346
REMARK  141  A    between atoms: _346  and  _347
REMARK  142  A    between atoms: _346  and  _349
REMARK  143  A    between atoms: _349  and  _350
REMARK  144  A    between atoms: _353  and  _355
REMARK  145  A    between atoms: _355  and  _356
REMARK  146  A    between atoms: _355  and  _358
REMARK  147  A    between atoms: _358  and  _359
REMARK  148  A    between atoms: _364  and  _366
REMARK  149  A    between atoms: _366  and  _367
REMARK  150  A    between atoms: _366  and  _369
REMARK  151  A    between atoms: _369  and  _370
REMARK  152  A    between atoms: _373  and  _375
REMARK  153  A    between atoms: _375  and  _376
REMARK  154  A    between atoms: _375  and  _378
REMARK  155  A    between atoms: _378  and  _379
REMARK  156  A    between atoms: _379  and  _380
REMARK  157  A    between atoms: _382  and  _384
REMARK  158  A    between atoms: _384  and  _385
REMARK  159  A    between atoms: _387  and  _389
REMARK  160  A    between atoms: _389  and  _390
REMARK  161  A    between atoms: _393  and  _395
REMARK  162  A    between atoms: _395  and  _396
REMARK  163  A    between atoms: _395  and  _398
REMARK  164  A    between atoms: _398  and  _399
REMARK  165  A    between atoms: _402  and  _404
REMARK  166  A    between atoms: _404  and  _405
REMARK  167  A    between atoms: _404  and  _407
REMARK  168  A    between atoms: _407  and  _408
REMARK  169  A    between atoms: _413  and  _415
REMARK  170  A    between atoms: _415  and  _416
REMARK  171  A    between atoms: _418  and  _420
REMARK  172  A    between atoms: _420  and  _421
REMARK  173  A    between atoms: _420  and  _423
REMARK  174  A    between atoms: _423  and  _424
REMARK  175  A    between atoms: _427  and  _429
REMARK  176  A    between atoms: _429  and  _430
REMARK  177  A    between atoms: _429  and  _432
REMARK  178  A    between atoms: _432  and  _433
REMARK  179  A    between atoms: _438  and  _439
REMARK  180  A    between atoms: _441  and  _443
REMARK  181  A    between atoms: _443  and  _444
REMARK  182  A    between atoms: _443  and  _446
REMARK  183  A    between atoms: _446  and  _447
REMARK  184  A    between atoms: _450  and  _452
REMARK  185  A    between atoms: _452  and  _453
REMARK  186  A    between atoms: _452  and  _455
REMARK  187  A    between atoms: _455  and  _456
REMARK  188  A    between atoms: _461  and  _463
REMARK  189  A    between atoms: _463  and  _464
REMARK  190  A    between atoms: _467  and  _469
REMARK  191  A    between atoms: _469  and  _470
REMARK  192  A    between atoms: _469  and  _472
REMARK  193  A    between atoms: _472  and  _473
REMARK  194  A    between atoms: _476  and  _478
REMARK  195  A    between atoms: _478  and  _479
REMARK  196  A    between atoms: _478  and  _481
REMARK  197  A    between atoms: _481  and  _482
REMARK  198  A    between atoms: _485  and  _487
REMARK  199  A    between atoms: _487  and  _488
REMARK  200  A    between atoms: _487  and  _490
REMARK  201  A    between atoms: _490  and  _491
REMARK  202  A    between atoms: _496  and  _498
REMARK  203  A    between atoms: _498  and  _499
REMARK  204  A    between atoms: _498  and  _501
REMARK  205  A    between atoms: _501  and  _502
REMARK  206  A    between atoms: _502  and  _503
REMARK  207  A    between atoms: _503  and  _504
REMARK  208  A    between atoms: _513  and  _515
REMARK  209  A    between atoms: _515  and  _516
REMARK  210  A    between atoms: _515  and  _518
REMARK  211  A    between atoms: _518  and  _519
REMARK  212  A    between atoms: _522  and  _524
REMARK  213  A    between atoms: _524  and  _525
REMARK  214  A    between atoms: _524  and  _527
REMARK  215  A    between atoms: _527  and  _528
REMARK  216  A    between atoms: _531  and  _533
REMARK  217  A    between atoms: _533  and  _534
REMARK  218  A    between atoms: _533  and  _536
REMARK  219  A    between atoms: _536  and  _537
REMARK  220  A    between atoms: _539  and  _541
REMARK  221  A    between atoms: _541  and  _542
REMARK  222  A    between atoms: _541  and  _544
REMARK  223  A    between atoms: _544  and  _545
REMARK  224  A    between atoms: _550  and  _552
REMARK  225  A    between atoms: _552  and  _553
REMARK  226  A    between atoms: _552  and  _555
REMARK  227  A    between atoms: _555  and  _556
REMARK  228  A    between atoms: _559  and  _561
REMARK  229  A    between atoms: _561  and  _562
REMARK  230  A    between atoms: _565  and  _567
REMARK  231  A    between atoms: _567  and  _568
REMARK  232  A    between atoms: _567  and  _570
REMARK  233  A    between atoms: _570  and  _571
REMARK  234  A    between atoms: _571  and  _572
REMARK  235  A    between atoms: _572  and  _573
REMARK  236  A    between atoms: _573  and  _574
REMARK  237  A    between atoms: _578  and  _580
REMARK  238  A    between atoms: _580  and  _581
REMARK  239  A    between atoms: _580  and  _583
REMARK  240  A    between atoms: _583  and  _584
REMARK  241  A    between atoms: _587  and  _589
REMARK  242  A    between atoms: _589  and  _590
REMARK  243  A    between atoms: _589  and  _592
REMARK  244  A    between atoms: _592  and  _593
REMARK  245  A    between atoms: _596  and  _598
REMARK  246  A    between atoms: _598  and  _599
REMARK  247  A    between atoms: _598  and  _601
REMARK  248  A    between atoms: _601  and  _602
REMARK  249  A    between atoms: _605  and  _607
REMARK  250  A    between atoms: _607  and  _608
REMARK  251  A    between atoms: _607  and  _610
REMARK  252  A    between atoms: _610  and  _611
REMARK  253  A    between atoms: _617  and  _619
REMARK  254  A    between atoms: _619  and  _620
REMARK  255  A    between atoms: _622  and  _624
REMARK  256  A    between atoms: _624  and  _625
REMARK  257  A    between atoms: _624  and  _627
REMARK  258  A    between atoms: _627  and  _628
REMARK  259  A    between atoms: _631  and  _633
REMARK  260  A    between atoms: _633  and  _634
REMARK  261  A    between atoms: _633  and  _636
REMARK  262  A    between atoms: _636  and  _637
REMARK                            x       y       z     vdW  Elec       q    Type
REMARK                         _______ _______ _______ _____ _____    ______ ____
ROOT
ATOM      1  O   HOH     1      35.423  23.645  31.880  0.00  0.00    +0.000 OA
ENDROOT
TORSDOF 0
REMARK  Name = ../refined-set-2016/3e93/3e93_pocket.pdb
REMARK  262 active torsions:
REMARK  status: ('A' for Active; 'I' for Inactive)
REMARK    1  A    between atoms: _1  and  _3
REMARK    2  A    between atoms: _3  and  _4
REMARK    3  A    between atoms: _3  and  _6
REMARK    4  A    between atoms: _6  and  _7
REMARK    5  A    between atoms: _17  and  _19
REMARK    6  A    between atoms: _19  and  _20
REMARK    7  A    between atoms: _19  and  _22
REMARK    8  A    between atoms: _22  and  _23
REMARK    9  A    between atoms: _26  and  _27
REMARK   10  A    between atoms: _32  and  _34
REMARK   11  A    between atoms: _34  and  _35
REMARK   12  A    between atoms: _34  and  _37
REMARK   13  A    between atoms: _40  and  _42
REMARK   14  A    between atoms: _42  and  _43
REMARK   15  A    between atoms: _45  and  _47
REMARK   16  A    between atoms: _47  and  _48
REMARK   17  A    between atoms: _47  and  _50
REMARK   18  A    between atoms: _50  and  _51
REMARK   19  A    between atoms: _53  and  _55
REMARK   20  A    between atoms: _55  and  _56
REMARK   21  A    between atoms: _55  and  _58
REMARK   22  A    between atoms: _58  and  _59
REMARK   23  A    between atoms: _61  and  _63
REMARK   24  A    between atoms: _63  and  _64
REMARK   25  A    between atoms: _63  and  _66
REMARK   26  A    between atoms: _69  and  _71
REMARK   27  A    between atoms: _71  and  _72
REMARK   28  A    between atoms: _71  and  _74
REMARK   29  A    between atoms: _76  and  _78
REMARK   30  A    between atoms: _78  and  _79
REMARK   31  A    between atoms: _82  and  _84
REMARK   32  A    between atoms: _84  and  _85
REMARK   33  A    between atoms: _88  and  _90
REMARK   34  A    between atoms: _90  and  _91
REMARK   35  A    between atoms: _90  and  _93
REMARK   36  A    between atoms: _93  and  _94
REMARK   37  A    between atoms: _94  and  _95
REMARK   38  A    between atoms: _95  and  _96
REMARK   39  A    between atoms: _105  and  _107
REMARK   40  A    between atoms: _107  and  _108
REMARK   41  A    between atoms: _107  and  _110
REMARK   42  A    between atoms: _113  and  _115
REMARK   43  A    between atoms: _115  and  _116
REMARK   44  A    between atoms: _119  and  _121
REMARK   45  A    between atoms: _121  and  _122
REMARK   46  A    between atoms: _121  and  _124
REMARK   47  A    between atoms: _127  and  _129
REMARK   48  A    between atoms: _129  and  _130
REMARK   49  A    between atoms: _129  and  _132
REMARK   50  A    between atoms: _132  and  _133
REMARK   51  A    between atoms: _133  and  _134
REMARK   52  A    between atoms: _134  and  _135
REMARK   53  A    between atoms: _135  and  _136
REMARK   54  A    between atoms: _140  and  _142
REMARK   55  A    between atoms: _142  and  _143
REMARK   56  A    between atoms: _142  and  _145
REMARK   57  A    between atoms: _145  and  _146
REMARK   58  A    between atoms: _146  and  _147
REMARK   59  A    between atoms: _147  and  _148
REMARK   60  A    between atoms: _148  and  _149
REMARK   61  A    between atoms: _153  and  _155
REMARK   62  A    between atoms: _155  and  _156
REMARK   63  A    between atoms: _155  and  _158
REMARK   64  A    between atoms: _158  and  _159
REMARK   65  A    between atoms: _162  and  _164
REMARK   66  A    between atoms: _164  and  _165
REMARK   67  A    between atoms: _164  and  _167
REMARK   68  A    between atoms: _167  and  _168
REMARK   69  A    between atoms: _168  and  _169
REMARK   70  A    between atoms: _169  and  _170
REMARK   71  A    between atoms: _179  and  _181
REMARK   72  A    between atoms: _181  and  _182
REMARK   73  A    between atoms: _181  and  _184
REMARK   74  A    between atoms: _184  and  _185
REMARK   75  A    between atoms: _185  and  _186
REMARK   76  A    between atoms: _186  and  _187
REMARK   77  A    between atoms: _196  and  _198
REMARK   78  A    between atoms: _198  and  _199
REMARK   79  A    between atoms: _198  and  _201
REMARK   80  A    between atoms: _201  and  _202
REMARK   81  A    between atoms: _202  and  _203
REMARK   82  A    between atoms: _206  and  _208
REMARK   83  A    between atoms: _208  and  _209
REMARK   84  A    between atoms: _208  and  _211
REMARK   85  A    between atoms: _211  and  _212
REMARK   86  A    between atoms: _215  and  _217
REMARK   87  A    between atoms: _217  and  _218
REMARK   88  A    between atoms: _217  and  _220
REMARK   89  A    between atoms: _220  and  _221
REMARK   90  A    between atoms: _224  and  _226
REMARK   91  A    between atoms: _226  and  _227
REMARK   92  A    between atoms: _226  and  _229
REMARK   93  A    between atoms: _229  and  _230
REMARK   94  A    between atoms: _233  and  _235
REMARK   95  A    between atoms: _235  and  _236
REMARK   96  A    between atoms: _235  and  _238
REMARK   97  A    between atoms: _238  and  _239
REMARK   98  A    between atoms: _239  and  _240
REMARK   99  A    between atoms: _242  and  _244
REMARK  100  A    between atoms: _244  and  _245
REMARK  101  A    between atoms: _244  and  _247
REMARK  102  A    between atoms: _247  and  _248
REMARK  103  A    between atoms: _253  and  _255
REMARK  104  A    between atoms: _255  and  _256
REMARK  105  A    between atoms: _255  and  _258
REMARK  106  A    between atoms: _258  and  _259
REMARK  107  A    between atoms: _264  and  _266
REMARK  108  A    between atoms: _266  and  _267
REMARK  109  A    between atoms: _266  and  _269
REMARK  110  A    between atoms: _272  and  _274
REMARK  111  A    between atoms: _274  and  _275
REMARK  112  A    between atoms: _274  and  _277
REMARK  113  A    between atoms: _277  and  _278
REMARK  114  A    between atoms: _281  and  _283
REMARK  115  A    between atoms: _283  and  _284
REMARK  116  A    between atoms: _286  and  _288
REMARK  117  A    between atoms: _288  and  _289
REMARK  118  A    between atoms: _288  and  _291
REMARK  119  A    between atoms: _291  and  _292
REMARK  120  A    between atoms: _295  and  _297
REMARK  121  A    between atoms: _297  and  _298
REMARK  122  A    between atoms: _297  and  _300
REMARK  123  A    between atoms: _300  and  _301
REMARK  124  A    between atoms: _304  and  _306
REMARK  125  A    between atoms: _306  and  _307
REMARK  126  A    between atoms: _306  and  _309
REMARK  127  A    between atoms: _309  and  _310
REMARK  128  A    between atoms: _313  and  _315
REMARK  129  A    between atoms: _315  and  _316
REMARK  130  A    between atoms: _315  and  _318
REMARK  131  A    between atoms: _318  and  _319
REMARK  132  A    between atoms: _324  and  _325
REMARK  133  A    between atoms: _327  and  _329
REMARK  134  A    between atoms: _329  and  _330
REMARK  135  A    between atoms: _329  and  _332
REMARK  136  A    between atoms: _332  and  _333
REMARK  137  A    between atoms: _336  and  _338
REMARK  138  A    between atoms: _338  and  _339
REMARK  139  A    between atoms: _338  and  _341
REMARK  140  A    between atoms: _344  and  _346
REMARK  141  A    between atoms: _346  and  _347
REMARK  142  A    between atoms: _346  and  _349
REMARK  143  A    between atoms: _349  and  _350
REMARK  144  A    between atoms: _353  and  _355
REMARK  145  A    between atoms: _355  and  _356
REMARK  146  A    between atoms: _355  and  _358
REMARK  147  A    between atoms: _358  and  _359
REMARK  148  A    between atoms: _364  and  _366
REMARK  149  A    between atoms: _366  and  _367
REMARK  150  A    between atoms: _366  and  _369
REMARK  151  A    between atoms: _369  and  _370
REMARK  152  A    between atoms: _373  and  _375
REMARK  153  A    between atoms: _375  and  _376
REMARK  154  A    between atoms: _375  and  _378
REMARK  155  A    between atoms: _378  and  _379
REMARK  156  A    between atoms: _379  and  _380
REMARK  157  A    between atoms: _382  and  _384
REMARK  158  A    between atoms: _384  and  _385
REMARK  159  A    between atoms: _387  and  _389
REMARK  160  A    between atoms: _389  and  _390
REMARK  161  A    between atoms: _393  and  _395
REMARK  162  A    between atoms: _395  and  _396
REMARK  163  A    between atoms: _395  and  _398
REMARK  164  A    between atoms: _398  and  _399
REMARK  165  A    between atoms: _402  and  _404
REMARK  166  A    between atoms: _404  and  _405
REMARK  167  A    between atoms: _404  and  _407
REMARK  168  A    between atoms: _407  and  _408
REMARK  169  A    between atoms: _413  and  _415
REMARK  170  A    between atoms: _415  and  _416
REMARK  171  A    between atoms: _418  and  _420
REMARK  172  A    between atoms: _420  and  _421
REMARK  173  A    between atoms: _420  and  _423
REMARK  174  A    between atoms: _423  and  _424
REMARK  175  A    between atoms: _427  and  _429
REMARK  176  A    between atoms: _429  and  _430
REMARK  177  A    between atoms: _429  and  _432
REMARK  178  A    between atoms: _432  and  _433
REMARK  179  A    between atoms: _438  and  _439
REMARK  180  A    between atoms: _441  and  _443
REMARK  181  A    between atoms: _443  and  _444
REMARK  182  A    between atoms: _443  and  _446
REMARK  183  A    between atoms: _446  and  _447
REMARK  184  A    between atoms: _450  and  _452
REMARK  185  A    between atoms: _452  and  _453
REMARK  186  A    between atoms: _452  and  _455
REMARK  187  A    between atoms: _455  and  _456
REMARK  188  A    between atoms: _461  and  _463
REMARK  189  A    between atoms: _463  and  _464
REMARK  190  A    between atoms: _467  and  _469
REMARK  191  A    between atoms: _469  and  _470
REMARK  192  A    between atoms: _469  and  _472
REMARK  193  A    between atoms: _472  and  _473
REMARK  194  A    between atoms: _476  and  _478
REMARK  195  A    between atoms: _478  and  _479
REMARK  196  A    between atoms: _478  and  _481
REMARK  197  A    between atoms: _481  and  _482
REMARK  198  A    between atoms: _485  and  _487
REMARK  199  A    between atoms: _487  and  _488
REMARK  200  A    between atoms: _487  and  _490
REMARK  201  A    between atoms: _490  and  _491
REMARK  202  A    between atoms: _496  and  _498
REMARK  203  A    between atoms: _498  and  _499
REMARK  204  A    between atoms: _498  and  _501
REMARK  205  A    between atoms: _501  and  _502
REMARK  206  A    between atoms: _502  and  _503
REMARK  207  A    between atoms: _503  and  _504
REMARK  208  A    between atoms: _513  and  _515
REMARK  209  A    between atoms: _515  and  _516
REMARK  210  A    between atoms: _515  and  _518
REMARK  211  A    between atoms: _518  and  _519
REMARK  212  A    between atoms: _522  and  _524
REMARK  213  A    between atoms: _524  and  _525
REMARK  214  A    between atoms: _524  and  _527
REMARK  215  A    between atoms: _527  and  _528
REMARK  216  A    between atoms: _531  and  _533
REMARK  217  A    between atoms: _533  and  _534
REMARK  218  A    between atoms: _533  and  _536
REMARK  219  A    between atoms: _536  and  _537
REMARK  220  A    between atoms: _539  and  _541
REMARK  221  A    between atoms: _541  and  _542
REMARK  222  A    between atoms: _541  and  _544
REMARK  223  A    between atoms: _544  and  _545
REMARK  224  A    between atoms: _550  and  _552
REMARK  225  A    between atoms: _552  and  _553
REMARK  226  A    between atoms: _552  and  _555
REMARK  227  A    between atoms: _555  and  _556
REMARK  228  A    between atoms: _559  and  _561
REMARK  229  A    between atoms: _561  and  _562
REMARK  230  A    between atoms: _565  and  _567
REMARK  231  A    between atoms: _567  and  _568
REMARK  232  A    between atoms: _567  and  _570
REMARK  233  A    between atoms: _570  and  _571
REMARK  234  A    between atoms: _571  and  _572
REMARK  235  A    between atoms: _572  and  _573
REMARK  236  A    between atoms: _573  and  _574
REMARK  237  A    between atoms: _578  and  _580
REMARK  238  A    between atoms: _580  and  _581
REMARK  239  A    between atoms: _580  and  _583
REMARK  240  A    between atoms: _583  and  _584
REMARK  241  A    between atoms: _587  and  _589
REMARK  242  A    between atoms: _589  and  _590
REMARK  243  A    between atoms: _589  and  _592
REMARK  244  A    between atoms: _592  and  _593
REMARK  245  A    between atoms: _596  and  _598
REMARK  246  A    between atoms: _598  and  _599
REMARK  247  A    between atoms: _598  and  _601
REMARK  248  A    between atoms: _601  and  _602
REMARK  249  A    between atoms: _605  and  _607
REMARK  250  A    between atoms: _607  and  _608
REMARK  251  A    between atoms: _607  and  _610
REMARK  252  A    between atoms: _610  and  _611
REMARK  253  A    between atoms: _617  and  _619
REMARK  254  A    between atoms: _619  and  _620
REMARK  255  A    between atoms: _622  and  _624
REMARK  256  A    between atoms: _624  and  _625
REMARK  257  A    between atoms: _624  and  _627
REMARK  258  A    between atoms: _627  and  _628
REMARK  259  A    between atoms: _631  and  _633
REMARK  260  A    between atoms: _633  and  _634
REMARK  261  A    between atoms: _633  and  _636
REMARK  262  A    between atoms: _636  and  _637
REMARK                            x       y       z     vdW  Elec       q    Type
REMARK                         _______ _______ _______ _____ _____    ______ ____
ROOT
ATOM      1  O   HOH     1      37.871  22.826  34.603  0.00  0.00    +0.000 OA
ENDROOT
TORSDOF 0
REMARK  Name = ../refined-set-2016/3e93/3e93_pocket.pdb
REMARK  262 active torsions:
REMARK  status: ('A' for Active; 'I' for Inactive)
REMARK    1  A    between atoms: _1  and  _3
REMARK    2  A    between atoms: _3  and  _4
REMARK    3  A    between atoms: _3  and  _6
REMARK    4  A    between atoms: _6  and  _7
REMARK    5  A    between atoms: _17  and  _19
REMARK    6  A    between atoms: _19  and  _20
REMARK    7  A    between atoms: _19  and  _22
REMARK    8  A    between atoms: _22  and  _23
REMARK    9  A    between atoms: _26  and  _27
REMARK   10  A    between atoms: _32  and  _34
REMARK   11  A    between atoms: _34  and  _35
REMARK   12  A    between atoms: _34  and  _37
REMARK   13  A    between atoms: _40  and  _42
REMARK   14  A    between atoms: _42  and  _43
REMARK   15  A    between atoms: _45  and  _47
REMARK   16  A    between atoms: _47  and  _48
REMARK   17  A    between atoms: _47  and  _50
REMARK   18  A    between atoms: _50  and  _51
REMARK   19  A    between atoms: _53  and  _55
REMARK   20  A    between atoms: _55  and  _56
REMARK   21  A    between atoms: _55  and  _58
REMARK   22  A    between atoms: _58  and  _59
REMARK   23  A    between atoms: _61  and  _63
REMARK   24  A    between atoms: _63  and  _64
REMARK   25  A    between atoms: _63  and  _66
REMARK   26  A    between atoms: _69  and  _71
REMARK   27  A    between atoms: _71  and  _72
REMARK   28  A    between atoms: _71  and  _74
REMARK   29  A    between atoms: _76  and  _78
REMARK   30  A    between atoms: _78  and  _79
REMARK   31  A    between atoms: _82  and  _84
REMARK   32  A    between atoms: _84  and  _85
REMARK   33  A    between atoms: _88  and  _90
REMARK   34  A    between atoms: _90  and  _91
REMARK   35  A    between atoms: _90  and  _93
REMARK   36  A    between atoms: _93  and  _94
REMARK   37  A    between atoms: _94  and  _95
REMARK   38  A    between atoms: _95  and  _96
REMARK   39  A    between atoms: _105  and  _107
REMARK   40  A    between atoms: _107  and  _108
REMARK   41  A    between atoms: _107  and  _110
REMARK   42  A    between atoms: _113  and  _115
REMARK   43  A    between atoms: _115  and  _116
REMARK   44  A    between atoms: _119  and  _121
REMARK   45  A    between atoms: _121  and  _122
REMARK   46  A    between atoms: _121  and  _124
REMARK   47  A    between atoms: _127  and  _129
REMARK   48  A    between atoms: _129  and  _130
REMARK   49  A    between atoms: _129  and  _132
REMARK   50  A    between atoms: _132  and  _133
REMARK   51  A    between atoms: _133  and  _134
REMARK   52  A    between atoms: _134  and  _135
REMARK   53  A    between atoms: _135  and  _136
REMARK   54  A    between atoms: _140  and  _142
REMARK   55  A    between atoms: _142  and  _143
REMARK   56  A    between atoms: _142  and  _145
REMARK   57  A    between atoms: _145  and  _146
REMARK   58  A    between atoms: _146  and  _147
REMARK   59  A    between atoms: _147  and  _148
REMARK   60  A    between atoms: _148  and  _149
REMARK   61  A    between atoms: _153  and  _155
REMARK   62  A    between atoms: _155  and  _156
REMARK   63  A    between atoms: _155  and  _158
REMARK   64  A    between atoms: _158  and  _159
REMARK   65  A    between atoms: _162  and  _164
REMARK   66  A    between atoms: _164  and  _165
REMARK   67  A    between atoms: _164  and  _167
REMARK   68  A    between atoms: _167  and  _168
REMARK   69  A    between atoms: _168  and  _169
REMARK   70  A    between atoms: _169  and  _170
REMARK   71  A    between atoms: _179  and  _181
REMARK   72  A    between atoms: _181  and  _182
REMARK   73  A    between atoms: _181  and  _184
REMARK   74  A    between atoms: _184  and  _185
REMARK   75  A    between atoms: _185  and  _186
REMARK   76  A    between atoms: _186  and  _187
REMARK   77  A    between atoms: _196  and  _198
REMARK   78  A    between atoms: _198  and  _199
REMARK   79  A    between atoms: _198  and  _201
REMARK   80  A    between atoms: _201  and  _202
REMARK   81  A    between atoms: _202  and  _203
REMARK   82  A    between atoms: _206  and  _208
REMARK   83  A    between atoms: _208  and  _209
REMARK   84  A    between atoms: _208  and  _211
REMARK   85  A    between atoms: _211  and  _212
REMARK   86  A    between atoms: _215  and  _217
REMARK   87  A    between atoms: _217  and  _218
REMARK   88  A    between atoms: _217  and  _220
REMARK   89  A    between atoms: _220  and  _221
REMARK   90  A    between atoms: _224  and  _226
REMARK   91  A    between atoms: _226  and  _227
REMARK   92  A    between atoms: _226  and  _229
REMARK   93  A    between atoms: _229  and  _230
REMARK   94  A    between atoms: _233  and  _235
REMARK   95  A    between atoms: _235  and  _236
REMARK   96  A    between atoms: _235  and  _238
REMARK   97  A    between atoms: _238  and  _239
REMARK   98  A    between atoms: _239  and  _240
REMARK   99  A    between atoms: _242  and  _244
REMARK  100  A    between atoms: _244  and  _245
REMARK  101  A    between atoms: _244  and  _247
REMARK  102  A    between atoms: _247  and  _248
REMARK  103  A    between atoms: _253  and  _255
REMARK  104  A    between atoms: _255  and  _256
REMARK  105  A    between atoms: _255  and  _258
REMARK  106  A    between atoms: _258  and  _259
REMARK  107  A    between atoms: _264  and  _266
REMARK  108  A    between atoms: _266  and  _267
REMARK  109  A    between atoms: _266  and  _269
REMARK  110  A    between atoms: _272  and  _274
REMARK  111  A    between atoms: _274  and  _275
REMARK  112  A    between atoms: _274  and  _277
REMARK  113  A    between atoms: _277  and  _278
REMARK  114  A    between atoms: _281  and  _283
REMARK  115  A    between atoms: _283  and  _284
REMARK  116  A    between atoms: _286  and  _288
REMARK  117  A    between atoms: _288  and  _289
REMARK  118  A    between atoms: _288  and  _291
REMARK  119  A    between atoms: _291  and  _292
REMARK  120  A    between atoms: _295  and  _297
REMARK  121  A    between atoms: _297  and  _298
REMARK  122  A    between atoms: _297  and  _300
REMARK  123  A    between atoms: _300  and  _301
REMARK  124  A    between atoms: _304  and  _306
REMARK  125  A    between atoms: _306  and  _307
REMARK  126  A    between atoms: _306  and  _309
REMARK  127  A    between atoms: _309  and  _310
REMARK  128  A    between atoms: _313  and  _315
REMARK  129  A    between atoms: _315  and  _316
REMARK  130  A    between atoms: _315  and  _318
REMARK  131  A    between atoms: _318  and  _319
REMARK  132  A    between atoms: _324  and  _325
REMARK  133  A    between atoms: _327  and  _329
REMARK  134  A    between atoms: _329  and  _330
REMARK  135  A    between atoms: _329  and  _332
REMARK  136  A    between atoms: _332  and  _333
REMARK  137  A    between atoms: _336  and  _338
REMARK  138  A    between atoms: _338  and  _339
REMARK  139  A    between atoms: _338  and  _341
REMARK  140  A    between atoms: _344  and  _346
REMARK  141  A    between atoms: _346  and  _347
REMARK  142  A    between atoms: _346  and  _349
REMARK  143  A    between atoms: _349  and  _350
REMARK  144  A    between atoms: _353  and  _355
REMARK  145  A    between atoms: _355  and  _356
REMARK  146  A    between atoms: _355  and  _358
REMARK  147  A    between atoms: _358  and  _359
REMARK  148  A    between atoms: _364  and  _366
REMARK  149  A    between atoms: _366  and  _367
REMARK  150  A    between atoms: _366  and  _369
REMARK  151  A    between atoms: _369  and  _370
REMARK  152  A    between atoms: _373  and  _375
REMARK  153  A    between atoms: _375  and  _376
REMARK  154  A    between atoms: _375  and  _378
REMARK  155  A    between atoms: _378  and  _379
REMARK  156  A    between atoms: _379  and  _380
REMARK  157  A    between atoms: _382  and  _384
REMARK  158  A    between atoms: _384  and  _385
REMARK  159  A    between atoms: _387  and  _389
REMARK  160  A    between atoms: _389  and  _390
REMARK  161  A    between atoms: _393  and  _395
REMARK  162  A    between atoms: _395  and  _396
REMARK  163  A    between atoms: _395  and  _398
REMARK  164  A    between atoms: _398  and  _399
REMARK  165  A    between atoms: _402  and  _404
REMARK  166  A    between atoms: _404  and  _405
REMARK  167  A    between atoms: _404  and  _407
REMARK  168  A    between atoms: _407  and  _408
REMARK  169  A    between atoms: _413  and  _415
REMARK  170  A    between atoms: _415  and  _416
REMARK  171  A    between atoms: _418  and  _420
REMARK  172  A    between atoms: _420  and  _421
REMARK  173  A    between atoms: _420  and  _423
REMARK  174  A    between atoms: _423  and  _424
REMARK  175  A    between atoms: _427  and  _429
REMARK  176  A    between atoms: _429  and  _430
REMARK  177  A    between atoms: _429  and  _432
REMARK  178  A    between atoms: _432  and  _433
REMARK  179  A    between atoms: _438  and  _439
REMARK  180  A    between atoms: _441  and  _443
REMARK  181  A    between atoms: _443  and  _444
REMARK  182  A    between atoms: _443  and  _446
REMARK  183  A    between atoms: _446  and  _447
REMARK  184  A    between atoms: _450  and  _452
REMARK  185  A    between atoms: _452  and  _453
REMARK  186  A    between atoms: _452  and  _455
REMARK  187  A    between atoms: _455  and  _456
REMARK  188  A    between atoms: _461  and  _463
REMARK  189  A    between atoms: _463  and  _464
REMARK  190  A    between atoms: _467  and  _469
REMARK  191  A    between atoms: _469  and  _470
REMARK  192  A    between atoms: _469  and  _472
REMARK  193  A    between atoms: _472  and  _473
REMARK  194  A    between atoms: _476  and  _478
REMARK  195  A    between atoms: _478  and  _479
REMARK  196  A    between atoms: _478  and  _481
REMARK  197  A    between atoms: _481  and  _482
REMARK  198  A    between atoms: _485  and  _487
REMARK  199  A    between atoms: _487  and  _488
REMARK  200  A    between atoms: _487  and  _490
REMARK  201  A    between atoms: _490  and  _491
REMARK  202  A    between atoms: _496  and  _498
REMARK  203  A    between atoms: _498  and  _499
REMARK  204  A    between atoms: _498  and  _501
REMARK  205  A    between atoms: _501  and  _502
REMARK  206  A    between atoms: _502  and  _503
REMARK  207  A    between atoms: _503  and  _504
REMARK  208  A    between atoms: _513  and  _515
REMARK  209  A    between atoms: _515  and  _516
REMARK  210  A    between atoms: _515  and  _518
REMARK  211  A    between atoms: _518  and  _519
REMARK  212  A    between atoms: _522  and  _524
REMARK  213  A    between atoms: _524  and  _525
REMARK  214  A    between atoms: _524  and  _527
REMARK  215  A    between atoms: _527  and  _528
REMARK  216  A    between atoms: _531  and  _533
REMARK  217  A    between atoms: _533  and  _534
REMARK  218  A    between atoms: _533  and  _536
REMARK  219  A    between atoms: _536  and  _537
REMARK  220  A    between atoms: _539  and  _541
REMARK  221  A    between atoms: _541  and  _542
REMARK  222  A    between atoms: _541  and  _544
REMARK  223  A    between atoms: _544  and  _545
REMARK  224  A    between atoms: _550  and  _552
REMARK  225  A    between atoms: _552  and  _553
REMARK  226  A    between atoms: _552  and  _555
REMARK  227  A    between atoms: _555  and  _556
REMARK  228  A    between atoms: _559  and  _561
REMARK  229  A    between atoms: _561  and  _562
REMARK  230  A    between atoms: _565  and  _567
REMARK  231  A    between atoms: _567  and  _568
REMARK  232  A    between atoms: _567  and  _570
REMARK  233  A    between atoms: _570  and  _571
REMARK  234  A    between atoms: _571  and  _572
REMARK  235  A    between atoms: _572  and  _573
REMARK  236  A    between atoms: _573  and  _574
REMARK  237  A    between atoms: _578  and  _580
REMARK  238  A    between atoms: _580  and  _581
REMARK  239  A    between atoms: _580  and  _583
REMARK  240  A    between atoms: _583  and  _584
REMARK  241  A    between atoms: _587  and  _589
REMARK  242  A    between atoms: _589  and  _590
REMARK  243  A    between atoms: _589  and  _592
REMARK  244  A    between atoms: _592  and  _593
REMARK  245  A    between atoms: _596  and  _598
REMARK  246  A    between atoms: _598  and  _599
REMARK  247  A    between atoms: _598  and  _601
REMARK  248  A    between atoms: _601  and  _602
REMARK  249  A    between atoms: _605  and  _607
REMARK  250  A    between atoms: _607  and  _608
REMARK  251  A    between atoms: _607  and  _610
REMARK  252  A    between atoms: _610  and  _611
REMARK  253  A    between atoms: _617  and  _619
REMARK  254  A    between atoms: _619  and  _620
REMARK  255  A    between atoms: _622  and  _624
REMARK  256  A    between atoms: _624  and  _625
REMARK  257  A    between atoms: _624  and  _627
REMARK  258  A    between atoms: _627  and  _628
REMARK  259  A    between atoms: _631  and  _633
REMARK  260  A    between atoms: _633  and  _634
REMARK  261  A    between atoms: _633  and  _636
REMARK  262  A    between atoms: _636  and  _637
REMARK                            x       y       z     vdW  Elec       q    Type
REMARK                         _______ _______ _______ _____ _____    ______ ____
ROOT
ATOM      1  O   HOH     1      38.445  24.519  30.718  0.00  0.00    +0.000 OA
ENDROOT
TORSDOF 0
REMARK  Name = ../refined-set-2016/3e93/3e93_pocket.pdb
REMARK  262 active torsions:
REMARK  status: ('A' for Active; 'I' for Inactive)
REMARK    1  A    between atoms: _1  and  _3
REMARK    2  A    between atoms: _3  and  _4
REMARK    3  A    between atoms: _3  and  _6
REMARK    4  A    between atoms: _6  and  _7
REMARK    5  A    between atoms: _17  and  _19
REMARK    6  A    between atoms: _19  and  _20
REMARK    7  A    between atoms: _19  and  _22
REMARK    8  A    between atoms: _22  and  _23
REMARK    9  A    between atoms: _26  and  _27
REMARK   10  A    between atoms: _32  and  _34
REMARK   11  A    between atoms: _34  and  _35
REMARK   12  A    between atoms: _34  and  _37
REMARK   13  A    between atoms: _40  and  _42
REMARK   14  A    between atoms: _42  and  _43
REMARK   15  A    between atoms: _45  and  _47
REMARK   16  A    between atoms: _47  and  _48
REMARK   17  A    between atoms: _47  and  _50
REMARK   18  A    between atoms: _50  and  _51
REMARK   19  A    between atoms: _53  and  _55
REMARK   20  A    between atoms: _55  and  _56
REMARK   21  A    between atoms: _55  and  _58
REMARK   22  A    between atoms: _58  and  _59
REMARK   23  A    between atoms: _61  and  _63
REMARK   24  A    between atoms: _63  and  _64
REMARK   25  A    between atoms: _63  and  _66
REMARK   26  A    between atoms: _69  and  _71
REMARK   27  A    between atoms: _71  and  _72
REMARK   28  A    between atoms: _71  and  _74
REMARK   29  A    between atoms: _76  and  _78
REMARK   30  A    between atoms: _78  and  _79
REMARK   31  A    between atoms: _82  and  _84
REMARK   32  A    between atoms: _84  and  _85
REMARK   33  A    between atoms: _88  and  _90
REMARK   34  A    between atoms: _90  and  _91
REMARK   35  A    between atoms: _90  and  _93
REMARK   36  A    between atoms: _93  and  _94
REMARK   37  A    between atoms: _94  and  _95
REMARK   38  A    between atoms: _95  and  _96
REMARK   39  A    between atoms: _105  and  _107
REMARK   40  A    between atoms: _107  and  _108
REMARK   41  A    between atoms: _107  and  _110
REMARK   42  A    between atoms: _113  and  _115
REMARK   43  A    between atoms: _115  and  _116
REMARK   44  A    between atoms: _119  and  _121
REMARK   45  A    between atoms: _121  and  _122
REMARK   46  A    between atoms: _121  and  _124
REMARK   47  A    between atoms: _127  and  _129
REMARK   48  A    between atoms: _129  and  _130
REMARK   49  A    between atoms: _129  and  _132
REMARK   50  A    between atoms: _132  and  _133
REMARK   51  A    between atoms: _133  and  _134
REMARK   52  A    between atoms: _134  and  _135
REMARK   53  A    between atoms: _135  and  _136
REMARK   54  A    between atoms: _140  and  _142
REMARK   55  A    between atoms: _142  and  _143
REMARK   56  A    between atoms: _142  and  _145
REMARK   57  A    between atoms: _145  and  _146
REMARK   58  A    between atoms: _146  and  _147
REMARK   59  A    between atoms: _147  and  _148
REMARK   60  A    between atoms: _148  and  _149
REMARK   61  A    between atoms: _153  and  _155
REMARK   62  A    between atoms: _155  and  _156
REMARK   63  A    between atoms: _155  and  _158
REMARK   64  A    between atoms: _158  and  _159
REMARK   65  A    between atoms: _162  and  _164
REMARK   66  A    between atoms: _164  and  _165
REMARK   67  A    between atoms: _164  and  _167
REMARK   68  A    between atoms: _167  and  _168
REMARK   69  A    between atoms: _168  and  _169
REMARK   70  A    between atoms: _169  and  _170
REMARK   71  A    between atoms: _179  and  _181
REMARK   72  A    between atoms: _181  and  _182
REMARK   73  A    between atoms: _181  and  _184
REMARK   74  A    between atoms: _184  and  _185
REMARK   75  A    between atoms: _185  and  _186
REMARK   76  A    between atoms: _186  and  _187
REMARK   77  A    between atoms: _196  and  _198
REMARK   78  A    between atoms: _198  and  _199
REMARK   79  A    between atoms: _198  and  _201
REMARK   80  A    between atoms: _201  and  _202
REMARK   81  A    between atoms: _202  and  _203
REMARK   82  A    between atoms: _206  and  _208
REMARK   83  A    between atoms: _208  and  _209
REMARK   84  A    between atoms: _208  and  _211
REMARK   85  A    between atoms: _211  and  _212
REMARK   86  A    between atoms: _215  and  _217
REMARK   87  A    between atoms: _217  and  _218
REMARK   88  A    between atoms: _217  and  _220
REMARK   89  A    between atoms: _220  and  _221
REMARK   90  A    between atoms: _224  and  _226
REMARK   91  A    between atoms: _226  and  _227
REMARK   92  A    between atoms: _226  and  _229
REMARK   93  A    between atoms: _229  and  _230
REMARK   94  A    between atoms: _233  and  _235
REMARK   95  A    between atoms: _235  and  _236
REMARK   96  A    between atoms: _235  and  _238
REMARK   97  A    between atoms: _238  and  _239
REMARK   98  A    between atoms: _239  and  _240
REMARK   99  A    between atoms: _242  and  _244
REMARK  100  A    between atoms: _244  and  _245
REMARK  101  A    between atoms: _244  and  _247
REMARK  102  A    between atoms: _247  and  _248
REMARK  103  A    between atoms: _253  and  _255
REMARK  104  A    between atoms: _255  and  _256
REMARK  105  A    between atoms: _255  and  _258
REMARK  106  A    between atoms: _258  and  _259
REMARK  107  A    between atoms: _264  and  _266
REMARK  108  A    between atoms: _266  and  _267
REMARK  109  A    between atoms: _266  and  _269
REMARK  110  A    between atoms: _272  and  _274
REMARK  111  A    between atoms: _274  and  _275
REMARK  112  A    between atoms: _274  and  _277
REMARK  113  A    between atoms: _277  and  _278
REMARK  114  A    between atoms: _281  and  _283
REMARK  115  A    between atoms: _283  and  _284
REMARK  116  A    between atoms: _286  and  _288
REMARK  117  A    between atoms: _288  and  _289
REMARK  118  A    between atoms: _288  and  _291
REMARK  119  A    between atoms: _291  and  _292
REMARK  120  A    between atoms: _295  and  _297
REMARK  121  A    between atoms: _297  and  _298
REMARK  122  A    between atoms: _297  and  _300
REMARK  123  A    between atoms: _300  and  _301
REMARK  124  A    between atoms: _304  and  _306
REMARK  125  A    between atoms: _306  and  _307
REMARK  126  A    between atoms: _306  and  _309
REMARK  127  A    between atoms: _309  and  _310
REMARK  128  A    between atoms: _313  and  _315
REMARK  129  A    between atoms: _315  and  _316
REMARK  130  A    between atoms: _315  and  _318
REMARK  131  A    between atoms: _318  and  _319
REMARK  132  A    between atoms: _324  and  _325
REMARK  133  A    between atoms: _327  and  _329
REMARK  134  A    between atoms: _329  and  _330
REMARK  135  A    between atoms: _329  and  _332
REMARK  136  A    between atoms: _332  and  _333
REMARK  137  A    between atoms: _336  and  _338
REMARK  138  A    between atoms: _338  and  _339
REMARK  139  A    between atoms: _338  and  _341
REMARK  140  A    between atoms: _344  and  _346
REMARK  141  A    between atoms: _346  and  _347
REMARK  142  A    between atoms: _346  and  _349
REMARK  143  A    between atoms: _349  and  _350
REMARK  144  A    between atoms: _353  and  _355
REMARK  145  A    between atoms: _355  and  _356
REMARK  146  A    between atoms: _355  and  _358
REMARK  147  A    between atoms: _358  and  _359
REMARK  148  A    between atoms: _364  and  _366
REMARK  149  A    between atoms: _366  and  _367
REMARK  150  A    between atoms: _366  and  _369
REMARK  151  A    between atoms: _369  and  _370
REMARK  152  A    between atoms: _373  and  _375
REMARK  153  A    between atoms: _375  and  _376
REMARK  154  A    between atoms: _375  and  _378
REMARK  155  A    between atoms: _378  and  _379
REMARK  156  A    between atoms: _379  and  _380
REMARK  157  A    between atoms: _382  and  _384
REMARK  158  A    between atoms: _384  and  _385
REMARK  159  A    between atoms: _387  and  _389
REMARK  160  A    between atoms: _389  and  _390
REMARK  161  A    between atoms: _393  and  _395
REMARK  162  A    between atoms: _395  and  _396
REMARK  163  A    between atoms: _395  and  _398
REMARK  164  A    between atoms: _398  and  _399
REMARK  165  A    between atoms: _402  and  _404
REMARK  166  A    between atoms: _404  and  _405
REMARK  167  A    between atoms: _404  and  _407
REMARK  168  A    between atoms: _407  and  _408
REMARK  169  A    between atoms: _413  and  _415
REMARK  170  A    between atoms: _415  and  _416
REMARK  171  A    between atoms: _418  and  _420
REMARK  172  A    between atoms: _420  and  _421
REMARK  173  A    between atoms: _420  and  _423
REMARK  174  A    between atoms: _423  and  _424
REMARK  175  A    between atoms: _427  and  _429
REMARK  176  A    between atoms: _429  and  _430
REMARK  177  A    between atoms: _429  and  _432
REMARK  178  A    between atoms: _432  and  _433
REMARK  179  A    between atoms: _438  and  _439
REMARK  180  A    between atoms: _441  and  _443
REMARK  181  A    between atoms: _443  and  _444
REMARK  182  A    between atoms: _443  and  _446
REMARK  183  A    between atoms: _446  and  _447
REMARK  184  A    between atoms: _450  and  _452
REMARK  185  A    between atoms: _452  and  _453
REMARK  186  A    between atoms: _452  and  _455
REMARK  187  A    between atoms: _455  and  _456
REMARK  188  A    between atoms: _461  and  _463
REMARK  189  A    between atoms: _463  and  _464
REMARK  190  A    between atoms: _467  and  _469
REMARK  191  A    between atoms: _469  and  _470
REMARK  192  A    between atoms: _469  and  _472
REMARK  193  A    between atoms: _472  and  _473
REMARK  194  A    between atoms: _476  and  _478
REMARK  195  A    between atoms: _478  and  _479
REMARK  196  A    between atoms: _478  and  _481
REMARK  197  A    between atoms: _481  and  _482
REMARK  198  A    between atoms: _485  and  _487
REMARK  199  A    between atoms: _487  and  _488
REMARK  200  A    between atoms: _487  and  _490
REMARK  201  A    between atoms: _490  and  _491
REMARK  202  A    between atoms: _496  and  _498
REMARK  203  A    between atoms: _498  and  _499
REMARK  204  A    between atoms: _498  and  _501
REMARK  205  A    between atoms: _501  and  _502
REMARK  206  A    between atoms: _502  and  _503
REMARK  207  A    between atoms: _503  and  _504
REMARK  208  A    between atoms: _513  and  _515
REMARK  209  A    between atoms: _515  and  _516
REMARK  210  A    between atoms: _515  and  _518
REMARK  211  A    between atoms: _518  and  _519
REMARK  212  A    between atoms: _522  and  _524
REMARK  213  A    between atoms: _524  and  _525
REMARK  214  A    between atoms: _524  and  _527
REMARK  215  A    between atoms: _527  and  _528
REMARK  216  A    between atoms: _531  and  _533
REMARK  217  A    between atoms: _533  and  _534
REMARK  218  A    between atoms: _533  and  _536
REMARK  219  A    between atoms: _536  and  _537
REMARK  220  A    between atoms: _539  and  _541
REMARK  221  A    between atoms: _541  and  _542
REMARK  222  A    between atoms: _541  and  _544
REMARK  223  A    between atoms: _544  and  _545
REMARK  224  A    between atoms: _550  and  _552
REMARK  225  A    between atoms: _552  and  _553
REMARK  226  A    between atoms: _552  and  _555
REMARK  227  A    between atoms: _555  and  _556
REMARK  228  A    between atoms: _559  and  _561
REMARK  229  A    between atoms: _561  and  _562
REMARK  230  A    between atoms: _565  and  _567
REMARK  231  A    between atoms: _567  and  _568
REMARK  232  A    between atoms: _567  and  _570
REMARK  233  A    between atoms: _570  and  _571
REMARK  234  A    between atoms: _571  and  _572
REMARK  235  A    between atoms: _572  and  _573
REMARK  236  A    between atoms: _573  and  _574
REMARK  237  A    between atoms: _578  and  _580
REMARK  238  A    between atoms: _580  and  _581
REMARK  239  A    between atoms: _580  and  _583
REMARK  240  A    between atoms: _583  and  _584
REMARK  241  A    between atoms: _587  and  _589
REMARK  242  A    between atoms: _589  and  _590
REMARK  243  A    between atoms: _589  and  _592
REMARK  244  A    between atoms: _592  and  _593
REMARK  245  A    between atoms: _596  and  _598
REMARK  246  A    between atoms: _598  and  _599
REMARK  247  A    between atoms: _598  and  _601
REMARK  248  A    between atoms: _601  and  _602
REMARK  249  A    between atoms: _605  and  _607
REMARK  250  A    between atoms: _607  and  _608
REMARK  251  A    between atoms: _607  and  _610
REMARK  252  A    between atoms: _610  and  _611
REMARK  253  A    between atoms: _617  and  _619
REMARK  254  A    between atoms: _619  and  _620
REMARK  255  A    between atoms: _622  and  _624
REMARK  256  A    between atoms: _624  and  _625
REMARK  257  A    between atoms: _624  and  _627
REMARK  258  A    between atoms: _627  and  _628
REMARK  259  A    between atoms: _631  and  _633
REMARK  260  A    between atoms: _633  and  _634
REMARK  261  A    between atoms: _633  and  _636
REMARK  262  A    between atoms: _636  and  _637
REMARK                            x       y       z     vdW  Elec       q    Type
REMARK                         _______ _______ _______ _____ _____    ______ ____
ROOT
ATOM      1  O   HOH     1      44.101  42.544  34.701  0.00  0.00    +0.000 OA
ENDROOT
TORSDOF 0
REMARK  Name = ../refined-set-2016/3e93/3e93_pocket.pdb
REMARK  262 active torsions:
REMARK  status: ('A' for Active; 'I' for Inactive)
REMARK    1  A    between atoms: _1  and  _3
REMARK    2  A    between atoms: _3  and  _4
REMARK    3  A    between atoms: _3  and  _6
REMARK    4  A    between atoms: _6  and  _7
REMARK    5  A    between atoms: _17  and  _19
REMARK    6  A    between atoms: _19  and  _20
REMARK    7  A    between atoms: _19  and  _22
REMARK    8  A    between atoms: _22  and  _23
REMARK    9  A    between atoms: _26  and  _27
REMARK   10  A    between atoms: _32  and  _34
REMARK   11  A    between atoms: _34  and  _35
REMARK   12  A    between atoms: _34  and  _37
REMARK   13  A    between atoms: _40  and  _42
REMARK   14  A    between atoms: _42  and  _43
REMARK   15  A    between atoms: _45  and  _47
REMARK   16  A    between atoms: _47  and  _48
REMARK   17  A    between atoms: _47  and  _50
REMARK   18  A    between atoms: _50  and  _51
REMARK   19  A    between atoms: _53  and  _55
REMARK   20  A    between atoms: _55  and  _56
REMARK   21  A    between atoms: _55  and  _58
REMARK   22  A    between atoms: _58  and  _59
REMARK   23  A    between atoms: _61  and  _63
REMARK   24  A    between atoms: _63  and  _64
REMARK   25  A    between atoms: _63  and  _66
REMARK   26  A    between atoms: _69  and  _71
REMARK   27  A    between atoms: _71  and  _72
REMARK   28  A    between atoms: _71  and  _74
REMARK   29  A    between atoms: _76  and  _78
REMARK   30  A    between atoms: _78  and  _79
REMARK   31  A    between atoms: _82  and  _84
REMARK   32  A    between atoms: _84  and  _85
REMARK   33  A    between atoms: _88  and  _90
REMARK   34  A    between atoms: _90  and  _91
REMARK   35  A    between atoms: _90  and  _93
REMARK   36  A    between atoms: _93  and  _94
REMARK   37  A    between atoms: _94  and  _95
REMARK   38  A    between atoms: _95  and  _96
REMARK   39  A    between atoms: _105  and  _107
REMARK   40  A    between atoms: _107  and  _108
REMARK   41  A    between atoms: _107  and  _110
REMARK   42  A    between atoms: _113  and  _115
REMARK   43  A    between atoms: _115  and  _116
REMARK   44  A    between atoms: _119  and  _121
REMARK   45  A    between atoms: _121  and  _122
REMARK   46  A    between atoms: _121  and  _124
REMARK   47  A    between atoms: _127  and  _129
REMARK   48  A    between atoms: _129  and  _130
REMARK   49  A    between atoms: _129  and  _132
REMARK   50  A    between atoms: _132  and  _133
REMARK   51  A    between atoms: _133  and  _134
REMARK   52  A    between atoms: _134  and  _135
REMARK   53  A    between atoms: _135  and  _136
REMARK   54  A    between atoms: _140  and  _142
REMARK   55  A    between atoms: _142  and  _143
REMARK   56  A    between atoms: _142  and  _145
REMARK   57  A    between atoms: _145  and  _146
REMARK   58  A    between atoms: _146  and  _147
REMARK   59  A    between atoms: _147  and  _148
REMARK   60  A    between atoms: _148  and  _149
REMARK   61  A    between atoms: _153  and  _155
REMARK   62  A    between atoms: _155  and  _156
REMARK   63  A    between atoms: _155  and  _158
REMARK   64  A    between atoms: _158  and  _159
REMARK   65  A    between atoms: _162  and  _164
REMARK   66  A    between atoms: _164  and  _165
REMARK   67  A    between atoms: _164  and  _167
REMARK   68  A    between atoms: _167  and  _168
REMARK   69  A    between atoms: _168  and  _169
REMARK   70  A    between atoms: _169  and  _170
REMARK   71  A    between atoms: _179  and  _181
REMARK   72  A    between atoms: _181  and  _182
REMARK   73  A    between atoms: _181  and  _184
REMARK   74  A    between atoms: _184  and  _185
REMARK   75  A    between atoms: _185  and  _186
REMARK   76  A    between atoms: _186  and  _187
REMARK   77  A    between atoms: _196  and  _198
REMARK   78  A    between atoms: _198  and  _199
REMARK   79  A    between atoms: _198  and  _201
REMARK   80  A    between atoms: _201  and  _202
REMARK   81  A    between atoms: _202  and  _203
REMARK   82  A    between atoms: _206  and  _208
REMARK   83  A    between atoms: _208  and  _209
REMARK   84  A    between atoms: _208  and  _211
REMARK   85  A    between atoms: _211  and  _212
REMARK   86  A    between atoms: _215  and  _217
REMARK   87  A    between atoms: _217  and  _218
REMARK   88  A    between atoms: _217  and  _220
REMARK   89  A    between atoms: _220  and  _221
REMARK   90  A    between atoms: _224  and  _226
REMARK   91  A    between atoms: _226  and  _227
REMARK   92  A    between atoms: _226  and  _229
REMARK   93  A    between atoms: _229  and  _230
REMARK   94  A    between atoms: _233  and  _235
REMARK   95  A    between atoms: _235  and  _236
REMARK   96  A    between atoms: _235  and  _238
REMARK   97  A    between atoms: _238  and  _239
REMARK   98  A    between atoms: _239  and  _240
REMARK   99  A    between atoms: _242  and  _244
REMARK  100  A    between atoms: _244  and  _245
REMARK  101  A    between atoms: _244  and  _247
REMARK  102  A    between atoms: _247  and  _248
REMARK  103  A    between atoms: _253  and  _255
REMARK  104  A    between atoms: _255  and  _256
REMARK  105  A    between atoms: _255  and  _258
REMARK  106  A    between atoms: _258  and  _259
REMARK  107  A    between atoms: _264  and  _266
REMARK  108  A    between atoms: _266  and  _267
REMARK  109  A    between atoms: _266  and  _269
REMARK  110  A    between atoms: _272  and  _274
REMARK  111  A    between atoms: _274  and  _275
REMARK  112  A    between atoms: _274  and  _277
REMARK  113  A    between atoms: _277  and  _278
REMARK  114  A    between atoms: _281  and  _283
REMARK  115  A    between atoms: _283  and  _284
REMARK  116  A    between atoms: _286  and  _288
REMARK  117  A    between atoms: _288  and  _289
REMARK  118  A    between atoms: _288  and  _291
REMARK  119  A    between atoms: _291  and  _292
REMARK  120  A    between atoms: _295  and  _297
REMARK  121  A    between atoms: _297  and  _298
REMARK  122  A    between atoms: _297  and  _300
REMARK  123  A    between atoms: _300  and  _301
REMARK  124  A    between atoms: _304  and  _306
REMARK  125  A    between atoms: _306  and  _307
REMARK  126  A    between atoms: _306  and  _309
REMARK  127  A    between atoms: _309  and  _310
REMARK  128  A    between atoms: _313  and  _315
REMARK  129  A    between atoms: _315  and  _316
REMARK  130  A    between atoms: _315  and  _318
REMARK  131  A    between atoms: _318  and  _319
REMARK  132  A    between atoms: _324  and  _325
REMARK  133  A    between atoms: _327  and  _329
REMARK  134  A    between atoms: _329  and  _330
REMARK  135  A    between atoms: _329  and  _332
REMARK  136  A    between atoms: _332  and  _333
REMARK  137  A    between atoms: _336  and  _338
REMARK  138  A    between atoms: _338  and  _339
REMARK  139  A    between atoms: _338  and  _341
REMARK  140  A    between atoms: _344  and  _346
REMARK  141  A    between atoms: _346  and  _347
REMARK  142  A    between atoms: _346  and  _349
REMARK  143  A    between atoms: _349  and  _350
REMARK  144  A    between atoms: _353  and  _355
REMARK  145  A    between atoms: _355  and  _356
REMARK  146  A    between atoms: _355  and  _358
REMARK  147  A    between atoms: _358  and  _359
REMARK  148  A    between atoms: _364  and  _366
REMARK  149  A    between atoms: _366  and  _367
REMARK  150  A    between atoms: _366  and  _369
REMARK  151  A    between atoms: _369  and  _370
REMARK  152  A    between atoms: _373  and  _375
REMARK  153  A    between atoms: _375  and  _376
REMARK  154  A    between atoms: _375  and  _378
REMARK  155  A    between atoms: _378  and  _379
REMARK  156  A    between atoms: _379  and  _380
REMARK  157  A    between atoms: _382  and  _384
REMARK  158  A    between atoms: _384  and  _385
REMARK  159  A    between atoms: _387  and  _389
REMARK  160  A    between atoms: _389  and  _390
REMARK  161  A    between atoms: _393  and  _395
REMARK  162  A    between atoms: _395  and  _396
REMARK  163  A    between atoms: _395  and  _398
REMARK  164  A    between atoms: _398  and  _399
REMARK  165  A    between atoms: _402  and  _404
REMARK  166  A    between atoms: _404  and  _405
REMARK  167  A    between atoms: _404  and  _407
REMARK  168  A    between atoms: _407  and  _408
REMARK  169  A    between atoms: _413  and  _415
REMARK  170  A    between atoms: _415  and  _416
REMARK  171  A    between atoms: _418  and  _420
REMARK  172  A    between atoms: _420  and  _421
REMARK  173  A    between atoms: _420  and  _423
REMARK  174  A    between atoms: _423  and  _424
REMARK  175  A    between atoms: _427  and  _429
REMARK  176  A    between atoms: _429  and  _430
REMARK  177  A    between atoms: _429  and  _432
REMARK  178  A    between atoms: _432  and  _433
REMARK  179  A    between atoms: _438  and  _439
REMARK  180  A    between atoms: _441  and  _443
REMARK  181  A    between atoms: _443  and  _444
REMARK  182  A    between atoms: _443  and  _446
REMARK  183  A    between atoms: _446  and  _447
REMARK  184  A    between atoms: _450  and  _452
REMARK  185  A    between atoms: _452  and  _453
REMARK  186  A    between atoms: _452  and  _455
REMARK  187  A    between atoms: _455  and  _456
REMARK  188  A    between atoms: _461  and  _463
REMARK  189  A    between atoms: _463  and  _464
REMARK  190  A    between atoms: _467  and  _469
REMARK  191  A    between atoms: _469  and  _470
REMARK  192  A    between atoms: _469  and  _472
REMARK  193  A    between atoms: _472  and  _473
REMARK  194  A    between atoms: _476  and  _478
REMARK  195  A    between atoms: _478  and  _479
REMARK  196  A    between atoms: _478  and  _481
REMARK  197  A    between atoms: _481  and  _482
REMARK  198  A    between atoms: _485  and  _487
REMARK  199  A    between atoms: _487  and  _488
REMARK  200  A    between atoms: _487  and  _490
REMARK  201  A    between atoms: _490  and  _491
REMARK  202  A    between atoms: _496  and  _498
REMARK  203  A    between atoms: _498  and  _499
REMARK  204  A    between atoms: _498  and  _501
REMARK  205  A    between atoms: _501  and  _502
REMARK  206  A    between atoms: _502  and  _503
REMARK  207  A    between atoms: _503  and  _504
REMARK  208  A    between atoms: _513  and  _515
REMARK  209  A    between atoms: _515  and  _516
REMARK  210  A    between atoms: _515  and  _518
REMARK  211  A    between atoms: _518  and  _519
REMARK  212  A    between atoms: _522  and  _524
REMARK  213  A    between atoms: _524  and  _525
REMARK  214  A    between atoms: _524  and  _527
REMARK  215  A    between atoms: _527  and  _528
REMARK  216  A    between atoms: _531  and  _533
REMARK  217  A    between atoms: _533  and  _534
REMARK  218  A    between atoms: _533  and  _536
REMARK  219  A    between atoms: _536  and  _537
REMARK  220  A    between atoms: _539  and  _541
REMARK  221  A    between atoms: _541  and  _542
REMARK  222  A    between atoms: _541  and  _544
REMARK  223  A    between atoms: _544  and  _545
REMARK  224  A    between atoms: _550  and  _552
REMARK  225  A    between atoms: _552  and  _553
REMARK  226  A    between atoms: _552  and  _555
REMARK  227  A    between atoms: _555  and  _556
REMARK  228  A    between atoms: _559  and  _561
REMARK  229  A    between atoms: _561  and  _562
REMARK  230  A    between atoms: _565  and  _567
REMARK  231  A    between atoms: _567  and  _568
REMARK  232  A    between atoms: _567  and  _570
REMARK  233  A    between atoms: _570  and  _571
REMARK  234  A    between atoms: _571  and  _572
REMARK  235  A    between atoms: _572  and  _573
REMARK  236  A    between atoms: _573  and  _574
REMARK  237  A    between atoms: _578  and  _580
REMARK  238  A    between atoms: _580  and  _581
REMARK  239  A    between atoms: _580  and  _583
REMARK  240  A    between atoms: _583  and  _584
REMARK  241  A    between atoms: _587  and  _589
REMARK  242  A    between atoms: _589  and  _590
REMARK  243  A    between atoms: _589  and  _592
REMARK  244  A    between atoms: _592  and  _593
REMARK  245  A    between atoms: _596  and  _598
REMARK  246  A    between atoms: _598  and  _599
REMARK  247  A    between atoms: _598  and  _601
REMARK  248  A    between atoms: _601  and  _602
REMARK  249  A    between atoms: _605  and  _607
REMARK  250  A    between atoms: _607  and  _608
REMARK  251  A    between atoms: _607  and  _610
REMARK  252  A    between atoms: _610  and  _611
REMARK  253  A    between atoms: _617  and  _619
REMARK  254  A    between atoms: _619  and  _620
REMARK  255  A    between atoms: _622  and  _624
REMARK  256  A    between atoms: _624  and  _625
REMARK  257  A    between atoms: _624  and  _627
REMARK  258  A    between atoms: _627  and  _628
REMARK  259  A    between atoms: _631  and  _633
REMARK  260  A    between atoms: _633  and  _634
REMARK  261  A    between atoms: _633  and  _636
REMARK  262  A    between atoms: _636  and  _637
REMARK                            x       y       z     vdW  Elec       q    Type
REMARK                         _______ _______ _______ _____ _____    ______ ____
ROOT
ATOM      1  O   HOH     1      40.625  23.026  35.193  0.00  0.00    +0.000 OA
ENDROOT
TORSDOF 0
REMARK  Name = ../refined-set-2016/3e93/3e93_pocket.pdb
REMARK  262 active torsions:
REMARK  status: ('A' for Active; 'I' for Inactive)
REMARK    1  A    between atoms: _1  and  _3
REMARK    2  A    between atoms: _3  and  _4
REMARK    3  A    between atoms: _3  and  _6
REMARK    4  A    between atoms: _6  and  _7
REMARK    5  A    between atoms: _17  and  _19
REMARK    6  A    between atoms: _19  and  _20
REMARK    7  A    between atoms: _19  and  _22
REMARK    8  A    between atoms: _22  and  _23
REMARK    9  A    between atoms: _26  and  _27
REMARK   10  A    between atoms: _32  and  _34
REMARK   11  A    between atoms: _34  and  _35
REMARK   12  A    between atoms: _34  and  _37
REMARK   13  A    between atoms: _40  and  _42
REMARK   14  A    between atoms: _42  and  _43
REMARK   15  A    between atoms: _45  and  _47
REMARK   16  A    between atoms: _47  and  _48
REMARK   17  A    between atoms: _47  and  _50
REMARK   18  A    between atoms: _50  and  _51
REMARK   19  A    between atoms: _53  and  _55
REMARK   20  A    between atoms: _55  and  _56
REMARK   21  A    between atoms: _55  and  _58
REMARK   22  A    between atoms: _58  and  _59
REMARK   23  A    between atoms: _61  and  _63
REMARK   24  A    between atoms: _63  and  _64
REMARK   25  A    between atoms: _63  and  _66
REMARK   26  A    between atoms: _69  and  _71
REMARK   27  A    between atoms: _71  and  _72
REMARK   28  A    between atoms: _71  and  _74
REMARK   29  A    between atoms: _76  and  _78
REMARK   30  A    between atoms: _78  and  _79
REMARK   31  A    between atoms: _82  and  _84
REMARK   32  A    between atoms: _84  and  _85
REMARK   33  A    between atoms: _88  and  _90
REMARK   34  A    between atoms: _90  and  _91
REMARK   35  A    between atoms: _90  and  _93
REMARK   36  A    between atoms: _93  and  _94
REMARK   37  A    between atoms: _94  and  _95
REMARK   38  A    between atoms: _95  and  _96
REMARK   39  A    between atoms: _105  and  _107
REMARK   40  A    between atoms: _107  and  _108
REMARK   41  A    between atoms: _107  and  _110
REMARK   42  A    between atoms: _113  and  _115
REMARK   43  A    between atoms: _115  and  _116
REMARK   44  A    between atoms: _119  and  _121
REMARK   45  A    between atoms: _121  and  _122
REMARK   46  A    between atoms: _121  and  _124
REMARK   47  A    between atoms: _127  and  _129
REMARK   48  A    between atoms: _129  and  _130
REMARK   49  A    between atoms: _129  and  _132
REMARK   50  A    between atoms: _132  and  _133
REMARK   51  A    between atoms: _133  and  _134
REMARK   52  A    between atoms: _134  and  _135
REMARK   53  A    between atoms: _135  and  _136
REMARK   54  A    between atoms: _140  and  _142
REMARK   55  A    between atoms: _142  and  _143
REMARK   56  A    between atoms: _142  and  _145
REMARK   57  A    between atoms: _145  and  _146
REMARK   58  A    between atoms: _146  and  _147
REMARK   59  A    between atoms: _147  and  _148
REMARK   60  A    between atoms: _148  and  _149
REMARK   61  A    between atoms: _153  and  _155
REMARK   62  A    between atoms: _155  and  _156
REMARK   63  A    between atoms: _155  and  _158
REMARK   64  A    between atoms: _158  and  _159
REMARK   65  A    between atoms: _162  and  _164
REMARK   66  A    between atoms: _164  and  _165
REMARK   67  A    between atoms: _164  and  _167
REMARK   68  A    between atoms: _167  and  _168
REMARK   69  A    between atoms: _168  and  _169
REMARK   70  A    between atoms: _169  and  _170
REMARK   71  A    between atoms: _179  and  _181
REMARK   72  A    between atoms: _181  and  _182
REMARK   73  A    between atoms: _181  and  _184
REMARK   74  A    between atoms: _184  and  _185
REMARK   75  A    between atoms: _185  and  _186
REMARK   76  A    between atoms: _186  and  _187
REMARK   77  A    between atoms: _196  and  _198
REMARK   78  A    between atoms: _198  and  _199
REMARK   79  A    between atoms: _198  and  _201
REMARK   80  A    between atoms: _201  and  _202
REMARK   81  A    between atoms: _202  and  _203
REMARK   82  A    between atoms: _206  and  _208
REMARK   83  A    between atoms: _208  and  _209
REMARK   84  A    between atoms: _208  and  _211
REMARK   85  A    between atoms: _211  and  _212
REMARK   86  A    between atoms: _215  and  _217
REMARK   87  A    between atoms: _217  and  _218
REMARK   88  A    between atoms: _217  and  _220
REMARK   89  A    between atoms: _220  and  _221
REMARK   90  A    between atoms: _224  and  _226
REMARK   91  A    between atoms: _226  and  _227
REMARK   92  A    between atoms: _226  and  _229
REMARK   93  A    between atoms: _229  and  _230
REMARK   94  A    between atoms: _233  and  _235
REMARK   95  A    between atoms: _235  and  _236
REMARK   96  A    between atoms: _235  and  _238
REMARK   97  A    between atoms: _238  and  _239
REMARK   98  A    between atoms: _239  and  _240
REMARK   99  A    between atoms: _242  and  _244
REMARK  100  A    between atoms: _244  and  _245
REMARK  101  A    between atoms: _244  and  _247
REMARK  102  A    between atoms: _247  and  _248
REMARK  103  A    between atoms: _253  and  _255
REMARK  104  A    between atoms: _255  and  _256
REMARK  105  A    between atoms: _255  and  _258
REMARK  106  A    between atoms: _258  and  _259
REMARK  107  A    between atoms: _264  and  _266
REMARK  108  A    between atoms: _266  and  _267
REMARK  109  A    between atoms: _266  and  _269
REMARK  110  A    between atoms: _272  and  _274
REMARK  111  A    between atoms: _274  and  _275
REMARK  112  A    between atoms: _274  and  _277
REMARK  113  A    between atoms: _277  and  _278
REMARK  114  A    between atoms: _281  and  _283
REMARK  115  A    between atoms: _283  and  _284
REMARK  116  A    between atoms: _286  and  _288
REMARK  117  A    between atoms: _288  and  _289
REMARK  118  A    between atoms: _288  and  _291
REMARK  119  A    between atoms: _291  and  _292
REMARK  120  A    between atoms: _295  and  _297
REMARK  121  A    between atoms: _297  and  _298
REMARK  122  A    between atoms: _297  and  _300
REMARK  123  A    between atoms: _300  and  _301
REMARK  124  A    between atoms: _304  and  _306
REMARK  125  A    between atoms: _306  and  _307
REMARK  126  A    between atoms: _306  and  _309
REMARK  127  A    between atoms: _309  and  _310
REMARK  128  A    between atoms: _313  and  _315
REMARK  129  A    between atoms: _315  and  _316
REMARK  130  A    between atoms: _315  and  _318
REMARK  131  A    between atoms: _318  and  _319
REMARK  132  A    between atoms: _324  and  _325
REMARK  133  A    between atoms: _327  and  _329
REMARK  134  A    between atoms: _329  and  _330
REMARK  135  A    between atoms: _329  and  _332
REMARK  136  A    between atoms: _332  and  _333
REMARK  137  A    between atoms: _336  and  _338
REMARK  138  A    between atoms: _338  and  _339
REMARK  139  A    between atoms: _338  and  _341
REMARK  140  A    between atoms: _344  and  _346
REMARK  141  A    between atoms: _346  and  _347
REMARK  142  A    between atoms: _346  and  _349
REMARK  143  A    between atoms: _349  and  _350
REMARK  144  A    between atoms: _353  and  _355
REMARK  145  A    between atoms: _355  and  _356
REMARK  146  A    between atoms: _355  and  _358
REMARK  147  A    between atoms: _358  and  _359
REMARK  148  A    between atoms: _364  and  _366
REMARK  149  A    between atoms: _366  and  _367
REMARK  150  A    between atoms: _366  and  _369
REMARK  151  A    between atoms: _369  and  _370
REMARK  152  A    between atoms: _373  and  _375
REMARK  153  A    between atoms: _375  and  _376
REMARK  154  A    between atoms: _375  and  _378
REMARK  155  A    between atoms: _378  and  _379
REMARK  156  A    between atoms: _379  and  _380
REMARK  157  A    between atoms: _382  and  _384
REMARK  158  A    between atoms: _384  and  _385
REMARK  159  A    between atoms: _387  and  _389
REMARK  160  A    between atoms: _389  and  _390
REMARK  161  A    between atoms: _393  and  _395
REMARK  162  A    between atoms: _395  and  _396
REMARK  163  A    between atoms: _395  and  _398
REMARK  164  A    between atoms: _398  and  _399
REMARK  165  A    between atoms: _402  and  _404
REMARK  166  A    between atoms: _404  and  _405
REMARK  167  A    between atoms: _404  and  _407
REMARK  168  A    between atoms: _407  and  _408
REMARK  169  A    between atoms: _413  and  _415
REMARK  170  A    between atoms: _415  and  _416
REMARK  171  A    between atoms: _418  and  _420
REMARK  172  A    between atoms: _420  and  _421
REMARK  173  A    between atoms: _420  and  _423
REMARK  174  A    between atoms: _423  and  _424
REMARK  175  A    between atoms: _427  and  _429
REMARK  176  A    between atoms: _429  and  _430
REMARK  177  A    between atoms: _429  and  _432
REMARK  178  A    between atoms: _432  and  _433
REMARK  179  A    between atoms: _438  and  _439
REMARK  180  A    between atoms: _441  and  _443
REMARK  181  A    between atoms: _443  and  _444
REMARK  182  A    between atoms: _443  and  _446
REMARK  183  A    between atoms: _446  and  _447
REMARK  184  A    between atoms: _450  and  _452
REMARK  185  A    between atoms: _452  and  _453
REMARK  186  A    between atoms: _452  and  _455
REMARK  187  A    between atoms: _455  and  _456
REMARK  188  A    between atoms: _461  and  _463
REMARK  189  A    between atoms: _463  and  _464
REMARK  190  A    between atoms: _467  and  _469
REMARK  191  A    between atoms: _469  and  _470
REMARK  192  A    between atoms: _469  and  _472
REMARK  193  A    between atoms: _472  and  _473
REMARK  194  A    between atoms: _476  and  _478
REMARK  195  A    between atoms: _478  and  _479
REMARK  196  A    between atoms: _478  and  _481
REMARK  197  A    between atoms: _481  and  _482
REMARK  198  A    between atoms: _485  and  _487
REMARK  199  A    between atoms: _487  and  _488
REMARK  200  A    between atoms: _487  and  _490
REMARK  201  A    between atoms: _490  and  _491
REMARK  202  A    between atoms: _496  and  _498
REMARK  203  A    between atoms: _498  and  _499
REMARK  204  A    between atoms: _498  and  _501
REMARK  205  A    between atoms: _501  and  _502
REMARK  206  A    between atoms: _502  and  _503
REMARK  207  A    between atoms: _503  and  _504
REMARK  208  A    between atoms: _513  and  _515
REMARK  209  A    between atoms: _515  and  _516
REMARK  210  A    between atoms: _515  and  _518
REMARK  211  A    between atoms: _518  and  _519
REMARK  212  A    between atoms: _522  and  _524
REMARK  213  A    between atoms: _524  and  _525
REMARK  214  A    between atoms: _524  and  _527
REMARK  215  A    between atoms: _527  and  _528
REMARK  216  A    between atoms: _531  and  _533
REMARK  217  A    between atoms: _533  and  _534
REMARK  218  A    between atoms: _533  and  _536
REMARK  219  A    between atoms: _536  and  _537
REMARK  220  A    between atoms: _539  and  _541
REMARK  221  A    between atoms: _541  and  _542
REMARK  222  A    between atoms: _541  and  _544
REMARK  223  A    between atoms: _544  and  _545
REMARK  224  A    between atoms: _550  and  _552
REMARK  225  A    between atoms: _552  and  _553
REMARK  226  A    between atoms: _552  and  _555
REMARK  227  A    between atoms: _555  and  _556
REMARK  228  A    between atoms: _559  and  _561
REMARK  229  A    between atoms: _561  and  _562
REMARK  230  A    between atoms: _565  and  _567
REMARK  231  A    between atoms: _567  and  _568
REMARK  232  A    between atoms: _567  and  _570
REMARK  233  A    between atoms: _570  and  _571
REMARK  234  A    between atoms: _571  and  _572
REMARK  235  A    between atoms: _572  and  _573
REMARK  236  A    between atoms: _573  and  _574
REMARK  237  A    between atoms: _578  and  _580
REMARK  238  A    between atoms: _580  and  _581
REMARK  239  A    between atoms: _580  and  _583
REMARK  240  A    between atoms: _583  and  _584
REMARK  241  A    between atoms: _587  and  _589
REMARK  242  A    between atoms: _589  and  _590
REMARK  243  A    between atoms: _589  and  _592
REMARK  244  A    between atoms: _592  and  _593
REMARK  245  A    between atoms: _596  and  _598
REMARK  246  A    between atoms: _598  and  _599
REMARK  247  A    between atoms: _598  and  _601
REMARK  248  A    between atoms: _601  and  _602
REMARK  249  A    between atoms: _605  and  _607
REMARK  250  A    between atoms: _607  and  _608
REMARK  251  A    between atoms: _607  and  _610
REMARK  252  A    between atoms: _610  and  _611
REMARK  253  A    between atoms: _617  and  _619
REMARK  254  A    between atoms: _619  and  _620
REMARK  255  A    between atoms: _622  and  _624
REMARK  256  A    between atoms: _624  and  _625
REMARK  257  A    between atoms: _624  and  _627
REMARK  258  A    between atoms: _627  and  _628
REMARK  259  A    between atoms: _631  and  _633
REMARK  260  A    between atoms: _633  and  _634
REMARK  261  A    between atoms: _633  and  _636
REMARK  262  A    between atoms: _636  and  _637
REMARK                            x       y       z     vdW  Elec       q    Type
REMARK                         _______ _______ _______ _____ _____    ______ ____
ROOT
ATOM      1  O   HOH     1      42.742  21.569  35.124  0.00  0.00    +0.000 OA
ENDROOT
TORSDOF 0
REMARK  Name = ../refined-set-2016/3e93/3e93_pocket.pdb
REMARK  262 active torsions:
REMARK  status: ('A' for Active; 'I' for Inactive)
REMARK    1  A    between atoms: _1  and  _3
REMARK    2  A    between atoms: _3  and  _4
REMARK    3  A    between atoms: _3  and  _6
REMARK    4  A    between atoms: _6  and  _7
REMARK    5  A    between atoms: _17  and  _19
REMARK    6  A    between atoms: _19  and  _20
REMARK    7  A    between atoms: _19  and  _22
REMARK    8  A    between atoms: _22  and  _23
REMARK    9  A    between atoms: _26  and  _27
REMARK   10  A    between atoms: _32  and  _34
REMARK   11  A    between atoms: _34  and  _35
REMARK   12  A    between atoms: _34  and  _37
REMARK   13  A    between atoms: _40  and  _42
REMARK   14  A    between atoms: _42  and  _43
REMARK   15  A    between atoms: _45  and  _47
REMARK   16  A    between atoms: _47  and  _48
REMARK   17  A    between atoms: _47  and  _50
REMARK   18  A    between atoms: _50  and  _51
REMARK   19  A    between atoms: _53  and  _55
REMARK   20  A    between atoms: _55  and  _56
REMARK   21  A    between atoms: _55  and  _58
REMARK   22  A    between atoms: _58  and  _59
REMARK   23  A    between atoms: _61  and  _63
REMARK   24  A    between atoms: _63  and  _64
REMARK   25  A    between atoms: _63  and  _66
REMARK   26  A    between atoms: _69  and  _71
REMARK   27  A    between atoms: _71  and  _72
REMARK   28  A    between atoms: _71  and  _74
REMARK   29  A    between atoms: _76  and  _78
REMARK   30  A    between atoms: _78  and  _79
REMARK   31  A    between atoms: _82  and  _84
REMARK   32  A    between atoms: _84  and  _85
REMARK   33  A    between atoms: _88  and  _90
REMARK   34  A    between atoms: _90  and  _91
REMARK   35  A    between atoms: _90  and  _93
REMARK   36  A    between atoms: _93  and  _94
REMARK   37  A    between atoms: _94  and  _95
REMARK   38  A    between atoms: _95  and  _96
REMARK   39  A    between atoms: _105  and  _107
REMARK   40  A    between atoms: _107  and  _108
REMARK   41  A    between atoms: _107  and  _110
REMARK   42  A    between atoms: _113  and  _115
REMARK   43  A    between atoms: _115  and  _116
REMARK   44  A    between atoms: _119  and  _121
REMARK   45  A    between atoms: _121  and  _122
REMARK   46  A    between atoms: _121  and  _124
REMARK   47  A    between atoms: _127  and  _129
REMARK   48  A    between atoms: _129  and  _130
REMARK   49  A    between atoms: _129  and  _132
REMARK   50  A    between atoms: _132  and  _133
REMARK   51  A    between atoms: _133  and  _134
REMARK   52  A    between atoms: _134  and  _135
REMARK   53  A    between atoms: _135  and  _136
REMARK   54  A    between atoms: _140  and  _142
REMARK   55  A    between atoms: _142  and  _143
REMARK   56  A    between atoms: _142  and  _145
REMARK   57  A    between atoms: _145  and  _146
REMARK   58  A    between atoms: _146  and  _147
REMARK   59  A    between atoms: _147  and  _148
REMARK   60  A    between atoms: _148  and  _149
REMARK   61  A    between atoms: _153  and  _155
REMARK   62  A    between atoms: _155  and  _156
REMARK   63  A    between atoms: _155  and  _158
REMARK   64  A    between atoms: _158  and  _159
REMARK   65  A    between atoms: _162  and  _164
REMARK   66  A    between atoms: _164  and  _165
REMARK   67  A    between atoms: _164  and  _167
REMARK   68  A    between atoms: _167  and  _168
REMARK   69  A    between atoms: _168  and  _169
REMARK   70  A    between atoms: _169  and  _170
REMARK   71  A    between atoms: _179  and  _181
REMARK   72  A    between atoms: _181  and  _182
REMARK   73  A    between atoms: _181  and  _184
REMARK   74  A    between atoms: _184  and  _185
REMARK   75  A    between atoms: _185  and  _186
REMARK   76  A    between atoms: _186  and  _187
REMARK   77  A    between atoms: _196  and  _198
REMARK   78  A    between atoms: _198  and  _199
REMARK   79  A    between atoms: _198  and  _201
REMARK   80  A    between atoms: _201  and  _202
REMARK   81  A    between atoms: _202  and  _203
REMARK   82  A    between atoms: _206  and  _208
REMARK   83  A    between atoms: _208  and  _209
REMARK   84  A    between atoms: _208  and  _211
REMARK   85  A    between atoms: _211  and  _212
REMARK   86  A    between atoms: _215  and  _217
REMARK   87  A    between atoms: _217  and  _218
REMARK   88  A    between atoms: _217  and  _220
REMARK   89  A    between atoms: _220  and  _221
REMARK   90  A    between atoms: _224  and  _226
REMARK   91  A    between atoms: _226  and  _227
REMARK   92  A    between atoms: _226  and  _229
REMARK   93  A    between atoms: _229  and  _230
REMARK   94  A    between atoms: _233  and  _235
REMARK   95  A    between atoms: _235  and  _236
REMARK   96  A    between atoms: _235  and  _238
REMARK   97  A    between atoms: _238  and  _239
REMARK   98  A    between atoms: _239  and  _240
REMARK   99  A    between atoms: _242  and  _244
REMARK  100  A    between atoms: _244  and  _245
REMARK  101  A    between atoms: _244  and  _247
REMARK  102  A    between atoms: _247  and  _248
REMARK  103  A    between atoms: _253  and  _255
REMARK  104  A    between atoms: _255  and  _256
REMARK  105  A    between atoms: _255  and  _258
REMARK  106  A    between atoms: _258  and  _259
REMARK  107  A    between atoms: _264  and  _266
REMARK  108  A    between atoms: _266  and  _267
REMARK  109  A    between atoms: _266  and  _269
REMARK  110  A    between atoms: _272  and  _274
REMARK  111  A    between atoms: _274  and  _275
REMARK  112  A    between atoms: _274  and  _277
REMARK  113  A    between atoms: _277  and  _278
REMARK  114  A    between atoms: _281  and  _283
REMARK  115  A    between atoms: _283  and  _284
REMARK  116  A    between atoms: _286  and  _288
REMARK  117  A    between atoms: _288  and  _289
REMARK  118  A    between atoms: _288  and  _291
REMARK  119  A    between atoms: _291  and  _292
REMARK  120  A    between atoms: _295  and  _297
REMARK  121  A    between atoms: _297  and  _298
REMARK  122  A    between atoms: _297  and  _300
REMARK  123  A    between atoms: _300  and  _301
REMARK  124  A    between atoms: _304  and  _306
REMARK  125  A    between atoms: _306  and  _307
REMARK  126  A    between atoms: _306  and  _309
REMARK  127  A    between atoms: _309  and  _310
REMARK  128  A    between atoms: _313  and  _315
REMARK  129  A    between atoms: _315  and  _316
REMARK  130  A    between atoms: _315  and  _318
REMARK  131  A    between atoms: _318  and  _319
REMARK  132  A    between atoms: _324  and  _325
REMARK  133  A    between atoms: _327  and  _329
REMARK  134  A    between atoms: _329  and  _330
REMARK  135  A    between atoms: _329  and  _332
REMARK  136  A    between atoms: _332  and  _333
REMARK  137  A    between atoms: _336  and  _338
REMARK  138  A    between atoms: _338  and  _339
REMARK  139  A    between atoms: _338  and  _341
REMARK  140  A    between atoms: _344  and  _346
REMARK  141  A    between atoms: _346  and  _347
REMARK  142  A    between atoms: _346  and  _349
REMARK  143  A    between atoms: _349  and  _350
REMARK  144  A    between atoms: _353  and  _355
REMARK  145  A    between atoms: _355  and  _356
REMARK  146  A    between atoms: _355  and  _358
REMARK  147  A    between atoms: _358  and  _359
REMARK  148  A    between atoms: _364  and  _366
REMARK  149  A    between atoms: _366  and  _367
REMARK  150  A    between atoms: _366  and  _369
REMARK  151  A    between atoms: _369  and  _370
REMARK  152  A    between atoms: _373  and  _375
REMARK  153  A    between atoms: _375  and  _376
REMARK  154  A    between atoms: _375  and  _378
REMARK  155  A    between atoms: _378  and  _379
REMARK  156  A    between atoms: _379  and  _380
REMARK  157  A    between atoms: _382  and  _384
REMARK  158  A    between atoms: _384  and  _385
REMARK  159  A    between atoms: _387  and  _389
REMARK  160  A    between atoms: _389  and  _390
REMARK  161  A    between atoms: _393  and  _395
REMARK  162  A    between atoms: _395  and  _396
REMARK  163  A    between atoms: _395  and  _398
REMARK  164  A    between atoms: _398  and  _399
REMARK  165  A    between atoms: _402  and  _404
REMARK  166  A    between atoms: _404  and  _405
REMARK  167  A    between atoms: _404  and  _407
REMARK  168  A    between atoms: _407  and  _408
REMARK  169  A    between atoms: _413  and  _415
REMARK  170  A    between atoms: _415  and  _416
REMARK  171  A    between atoms: _418  and  _420
REMARK  172  A    between atoms: _420  and  _421
REMARK  173  A    between atoms: _420  and  _423
REMARK  174  A    between atoms: _423  and  _424
REMARK  175  A    between atoms: _427  and  _429
REMARK  176  A    between atoms: _429  and  _430
REMARK  177  A    between atoms: _429  and  _432
REMARK  178  A    between atoms: _432  and  _433
REMARK  179  A    between atoms: _438  and  _439
REMARK  180  A    between atoms: _441  and  _443
REMARK  181  A    between atoms: _443  and  _444
REMARK  182  A    between atoms: _443  and  _446
REMARK  183  A    between atoms: _446  and  _447
REMARK  184  A    between atoms: _450  and  _452
REMARK  185  A    between atoms: _452  and  _453
REMARK  186  A    between atoms: _452  and  _455
REMARK  187  A    between atoms: _455  and  _456
REMARK  188  A    between atoms: _461  and  _463
REMARK  189  A    between atoms: _463  and  _464
REMARK  190  A    between atoms: _467  and  _469
REMARK  191  A    between atoms: _469  and  _470
REMARK  192  A    between atoms: _469  and  _472
REMARK  193  A    between atoms: _472  and  _473
REMARK  194  A    between atoms: _476  and  _478
REMARK  195  A    between atoms: _478  and  _479
REMARK  196  A    between atoms: _478  and  _481
REMARK  197  A    between atoms: _481  and  _482
REMARK  198  A    between atoms: _485  and  _487
REMARK  199  A    between atoms: _487  and  _488
REMARK  200  A    between atoms: _487  and  _490
REMARK  201  A    between atoms: _490  and  _491
REMARK  202  A    between atoms: _496  and  _498
REMARK  203  A    between atoms: _498  and  _499
REMARK  204  A    between atoms: _498  and  _501
REMARK  205  A    between atoms: _501  and  _502
REMARK  206  A    between atoms: _502  and  _503
REMARK  207  A    between atoms: _503  and  _504
REMARK  208  A    between atoms: _513  and  _515
REMARK  209  A    between atoms: _515  and  _516
REMARK  210  A    between atoms: _515  and  _518
REMARK  211  A    between atoms: _518  and  _519
REMARK  212  A    between atoms: _522  and  _524
REMARK  213  A    between atoms: _524  and  _525
REMARK  214  A    between atoms: _524  and  _527
REMARK  215  A    between atoms: _527  and  _528
REMARK  216  A    between atoms: _531  and  _533
REMARK  217  A    between atoms: _533  and  _534
REMARK  218  A    between atoms: _533  and  _536
REMARK  219  A    between atoms: _536  and  _537
REMARK  220  A    between atoms: _539  and  _541
REMARK  221  A    between atoms: _541  and  _542
REMARK  222  A    between atoms: _541  and  _544
REMARK  223  A    between atoms: _544  and  _545
REMARK  224  A    between atoms: _550  and  _552
REMARK  225  A    between atoms: _552  and  _553
REMARK  226  A    between atoms: _552  and  _555
REMARK  227  A    between atoms: _555  and  _556
REMARK  228  A    between atoms: _559  and  _561
REMARK  229  A    between atoms: _561  and  _562
REMARK  230  A    between atoms: _565  and  _567
REMARK  231  A    between atoms: _567  and  _568
REMARK  232  A    between atoms: _567  and  _570
REMARK  233  A    between atoms: _570  and  _571
REMARK  234  A    between atoms: _571  and  _572
REMARK  235  A    between atoms: _572  and  _573
REMARK  236  A    between atoms: _573  and  _574
REMARK  237  A    between atoms: _578  and  _580
REMARK  238  A    between atoms: _580  and  _581
REMARK  239  A    between atoms: _580  and  _583
REMARK  240  A    between atoms: _583  and  _584
REMARK  241  A    between atoms: _587  and  _589
REMARK  242  A    between atoms: _589  and  _590
REMARK  243  A    between atoms: _589  and  _592
REMARK  244  A    between atoms: _592  and  _593
REMARK  245  A    between atoms: _596  and  _598
REMARK  246  A    between atoms: _598  and  _599
REMARK  247  A    between atoms: _598  and  _601
REMARK  248  A    between atoms: _601  and  _602
REMARK  249  A    between atoms: _605  and  _607
REMARK  250  A    between atoms: _607  and  _608
REMARK  251  A    between atoms: _607  and  _610
REMARK  252  A    between atoms: _610  and  _611
REMARK  253  A    between atoms: _617  and  _619
REMARK  254  A    between atoms: _619  and  _620
REMARK  255  A    between atoms: _622  and  _624
REMARK  256  A    between atoms: _624  and  _625
REMARK  257  A    between atoms: _624  and  _627
REMARK  258  A    between atoms: _627  and  _628
REMARK  259  A    between atoms: _631  and  _633
REMARK  260  A    between atoms: _633  and  _634
REMARK  261  A    between atoms: _633  and  _636
REMARK  262  A    between atoms: _636  and  _637
REMARK                            x       y       z     vdW  Elec       q    Type
REMARK                         _______ _______ _______ _____ _____    ______ ____
ROOT
ATOM      1  O   HOH     1      49.596  39.016  36.180  0.00  0.00    +0.000 OA
ENDROOT
TORSDOF 0
REMARK  Name = ../refined-set-2016/3e93/3e93_pocket.pdb
REMARK  262 active torsions:
REMARK  status: ('A' for Active; 'I' for Inactive)
REMARK    1  A    between atoms: _1  and  _3
REMARK    2  A    between atoms: _3  and  _4
REMARK    3  A    between atoms: _3  and  _6
REMARK    4  A    between atoms: _6  and  _7
REMARK    5  A    between atoms: _17  and  _19
REMARK    6  A    between atoms: _19  and  _20
REMARK    7  A    between atoms: _19  and  _22
REMARK    8  A    between atoms: _22  and  _23
REMARK    9  A    between atoms: _26  and  _27
REMARK   10  A    between atoms: _32  and  _34
REMARK   11  A    between atoms: _34  and  _35
REMARK   12  A    between atoms: _34  and  _37
REMARK   13  A    between atoms: _40  and  _42
REMARK   14  A    between atoms: _42  and  _43
REMARK   15  A    between atoms: _45  and  _47
REMARK   16  A    between atoms: _47  and  _48
REMARK   17  A    between atoms: _47  and  _50
REMARK   18  A    between atoms: _50  and  _51
REMARK   19  A    between atoms: _53  and  _55
REMARK   20  A    between atoms: _55  and  _56
REMARK   21  A    between atoms: _55  and  _58
REMARK   22  A    between atoms: _58  and  _59
REMARK   23  A    between atoms: _61  and  _63
REMARK   24  A    between atoms: _63  and  _64
REMARK   25  A    between atoms: _63  and  _66
REMARK   26  A    between atoms: _69  and  _71
REMARK   27  A    between atoms: _71  and  _72
REMARK   28  A    between atoms: _71  and  _74
REMARK   29  A    between atoms: _76  and  _78
REMARK   30  A    between atoms: _78  and  _79
REMARK   31  A    between atoms: _82  and  _84
REMARK   32  A    between atoms: _84  and  _85
REMARK   33  A    between atoms: _88  and  _90
REMARK   34  A    between atoms: _90  and  _91
REMARK   35  A    between atoms: _90  and  _93
REMARK   36  A    between atoms: _93  and  _94
REMARK   37  A    between atoms: _94  and  _95
REMARK   38  A    between atoms: _95  and  _96
REMARK   39  A    between atoms: _105  and  _107
REMARK   40  A    between atoms: _107  and  _108
REMARK   41  A    between atoms: _107  and  _110
REMARK   42  A    between atoms: _113  and  _115
REMARK   43  A    between atoms: _115  and  _116
REMARK   44  A    between atoms: _119  and  _121
REMARK   45  A    between atoms: _121  and  _122
REMARK   46  A    between atoms: _121  and  _124
REMARK   47  A    between atoms: _127  and  _129
REMARK   48  A    between atoms: _129  and  _130
REMARK   49  A    between atoms: _129  and  _132
REMARK   50  A    between atoms: _132  and  _133
REMARK   51  A    between atoms: _133  and  _134
REMARK   52  A    between atoms: _134  and  _135
REMARK   53  A    between atoms: _135  and  _136
REMARK   54  A    between atoms: _140  and  _142
REMARK   55  A    between atoms: _142  and  _143
REMARK   56  A    between atoms: _142  and  _145
REMARK   57  A    between atoms: _145  and  _146
REMARK   58  A    between atoms: _146  and  _147
REMARK   59  A    between atoms: _147  and  _148
REMARK   60  A    between atoms: _148  and  _149
REMARK   61  A    between atoms: _153  and  _155
REMARK   62  A    between atoms: _155  and  _156
REMARK   63  A    between atoms: _155  and  _158
REMARK   64  A    between atoms: _158  and  _159
REMARK   65  A    between atoms: _162  and  _164
REMARK   66  A    between atoms: _164  and  _165
REMARK   67  A    between atoms: _164  and  _167
REMARK   68  A    between atoms: _167  and  _168
REMARK   69  A    between atoms: _168  and  _169
REMARK   70  A    between atoms: _169  and  _170
REMARK   71  A    between atoms: _179  and  _181
REMARK   72  A    between atoms: _181  and  _182
REMARK   73  A    between atoms: _181  and  _184
REMARK   74  A    between atoms: _184  and  _185
REMARK   75  A    between atoms: _185  and  _186
REMARK   76  A    between atoms: _186  and  _187
REMARK   77  A    between atoms: _196  and  _198
REMARK   78  A    between atoms: _198  and  _199
REMARK   79  A    between atoms: _198  and  _201
REMARK   80  A    between atoms: _201  and  _202
REMARK   81  A    between atoms: _202  and  _203
REMARK   82  A    between atoms: _206  and  _208
REMARK   83  A    between atoms: _208  and  _209
REMARK   84  A    between atoms: _208  and  _211
REMARK   85  A    between atoms: _211  and  _212
REMARK   86  A    between atoms: _215  and  _217
REMARK   87  A    between atoms: _217  and  _218
REMARK   88  A    between atoms: _217  and  _220
REMARK   89  A    between atoms: _220  and  _221
REMARK   90  A    between atoms: _224  and  _226
REMARK   91  A    between atoms: _226  and  _227
REMARK   92  A    between atoms: _226  and  _229
REMARK   93  A    between atoms: _229  and  _230
REMARK   94  A    between atoms: _233  and  _235
REMARK   95  A    between atoms: _235  and  _236
REMARK   96  A    between atoms: _235  and  _238
REMARK   97  A    between atoms: _238  and  _239
REMARK   98  A    between atoms: _239  and  _240
REMARK   99  A    between atoms: _242  and  _244
REMARK  100  A    between atoms: _244  and  _245
REMARK  101  A    between atoms: _244  and  _247
REMARK  102  A    between atoms: _247  and  _248
REMARK  103  A    between atoms: _253  and  _255
REMARK  104  A    between atoms: _255  and  _256
REMARK  105  A    between atoms: _255  and  _258
REMARK  106  A    between atoms: _258  and  _259
REMARK  107  A    between atoms: _264  and  _266
REMARK  108  A    between atoms: _266  and  _267
REMARK  109  A    between atoms: _266  and  _269
REMARK  110  A    between atoms: _272  and  _274
REMARK  111  A    between atoms: _274  and  _275
REMARK  112  A    between atoms: _274  and  _277
REMARK  113  A    between atoms: _277  and  _278
REMARK  114  A    between atoms: _281  and  _283
REMARK  115  A    between atoms: _283  and  _284
REMARK  116  A    between atoms: _286  and  _288
REMARK  117  A    between atoms: _288  and  _289
REMARK  118  A    between atoms: _288  and  _291
REMARK  119  A    between atoms: _291  and  _292
REMARK  120  A    between atoms: _295  and  _297
REMARK  121  A    between atoms: _297  and  _298
REMARK  122  A    between atoms: _297  and  _300
REMARK  123  A    between atoms: _300  and  _301
REMARK  124  A    between atoms: _304  and  _306
REMARK  125  A    between atoms: _306  and  _307
REMARK  126  A    between atoms: _306  and  _309
REMARK  127  A    between atoms: _309  and  _310
REMARK  128  A    between atoms: _313  and  _315
REMARK  129  A    between atoms: _315  and  _316
REMARK  130  A    between atoms: _315  and  _318
REMARK  131  A    between atoms: _318  and  _319
REMARK  132  A    between atoms: _324  and  _325
REMARK  133  A    between atoms: _327  and  _329
REMARK  134  A    between atoms: _329  and  _330
REMARK  135  A    between atoms: _329  and  _332
REMARK  136  A    between atoms: _332  and  _333
REMARK  137  A    between atoms: _336  and  _338
REMARK  138  A    between atoms: _338  and  _339
REMARK  139  A    between atoms: _338  and  _341
REMARK  140  A    between atoms: _344  and  _346
REMARK  141  A    between atoms: _346  and  _347
REMARK  142  A    between atoms: _346  and  _349
REMARK  143  A    between atoms: _349  and  _350
REMARK  144  A    between atoms: _353  and  _355
REMARK  145  A    between atoms: _355  and  _356
REMARK  146  A    between atoms: _355  and  _358
REMARK  147  A    between atoms: _358  and  _359
REMARK  148  A    between atoms: _364  and  _366
REMARK  149  A    between atoms: _366  and  _367
REMARK  150  A    between atoms: _366  and  _369
REMARK  151  A    between atoms: _369  and  _370
REMARK  152  A    between atoms: _373  and  _375
REMARK  153  A    between atoms: _375  and  _376
REMARK  154  A    between atoms: _375  and  _378
REMARK  155  A    between atoms: _378  and  _379
REMARK  156  A    between atoms: _379  and  _380
REMARK  157  A    between atoms: _382  and  _384
REMARK  158  A    between atoms: _384  and  _385
REMARK  159  A    between atoms: _387  and  _389
REMARK  160  A    between atoms: _389  and  _390
REMARK  161  A    between atoms: _393  and  _395
REMARK  162  A    between atoms: _395  and  _396
REMARK  163  A    between atoms: _395  and  _398
REMARK  164  A    between atoms: _398  and  _399
REMARK  165  A    between atoms: _402  and  _404
REMARK  166  A    between atoms: _404  and  _405
REMARK  167  A    between atoms: _404  and  _407
REMARK  168  A    between atoms: _407  and  _408
REMARK  169  A    between atoms: _413  and  _415
REMARK  170  A    between atoms: _415  and  _416
REMARK  171  A    between atoms: _418  and  _420
REMARK  172  A    between atoms: _420  and  _421
REMARK  173  A    between atoms: _420  and  _423
REMARK  174  A    between atoms: _423  and  _424
REMARK  175  A    between atoms: _427  and  _429
REMARK  176  A    between atoms: _429  and  _430
REMARK  177  A    between atoms: _429  and  _432
REMARK  178  A    between atoms: _432  and  _433
REMARK  179  A    between atoms: _438  and  _439
REMARK  180  A    between atoms: _441  and  _443
REMARK  181  A    between atoms: _443  and  _444
REMARK  182  A    between atoms: _443  and  _446
REMARK  183  A    between atoms: _446  and  _447
REMARK  184  A    between atoms: _450  and  _452
REMARK  185  A    between atoms: _452  and  _453
REMARK  186  A    between atoms: _452  and  _455
REMARK  187  A    between atoms: _455  and  _456
REMARK  188  A    between atoms: _461  and  _463
REMARK  189  A    between atoms: _463  and  _464
REMARK  190  A    between atoms: _467  and  _469
REMARK  191  A    between atoms: _469  and  _470
REMARK  192  A    between atoms: _469  and  _472
REMARK  193  A    between atoms: _472  and  _473
REMARK  194  A    between atoms: _476  and  _478
REMARK  195  A    between atoms: _478  and  _479
REMARK  196  A    between atoms: _478  and  _481
REMARK  197  A    between atoms: _481  and  _482
REMARK  198  A    between atoms: _485  and  _487
REMARK  199  A    between atoms: _487  and  _488
REMARK  200  A    between atoms: _487  and  _490
REMARK  201  A    between atoms: _490  and  _491
REMARK  202  A    between atoms: _496  and  _498
REMARK  203  A    between atoms: _498  and  _499
REMARK  204  A    between atoms: _498  and  _501
REMARK  205  A    between atoms: _501  and  _502
REMARK  206  A    between atoms: _502  and  _503
REMARK  207  A    between atoms: _503  and  _504
REMARK  208  A    between atoms: _513  and  _515
REMARK  209  A    between atoms: _515  and  _516
REMARK  210  A    between atoms: _515  and  _518
REMARK  211  A    between atoms: _518  and  _519
REMARK  212  A    between atoms: _522  and  _524
REMARK  213  A    between atoms: _524  and  _525
REMARK  214  A    between atoms: _524  and  _527
REMARK  215  A    between atoms: _527  and  _528
REMARK  216  A    between atoms: _531  and  _533
REMARK  217  A    between atoms: _533  and  _534
REMARK  218  A    between atoms: _533  and  _536
REMARK  219  A    between atoms: _536  and  _537
REMARK  220  A    between atoms: _539  and  _541
REMARK  221  A    between atoms: _541  and  _542
REMARK  222  A    between atoms: _541  and  _544
REMARK  223  A    between atoms: _544  and  _545
REMARK  224  A    between atoms: _550  and  _552
REMARK  225  A    between atoms: _552  and  _553
REMARK  226  A    between atoms: _552  and  _555
REMARK  227  A    between atoms: _555  and  _556
REMARK  228  A    between atoms: _559  and  _561
REMARK  229  A    between atoms: _561  and  _562
REMARK  230  A    between atoms: _565  and  _567
REMARK  231  A    between atoms: _567  and  _568
REMARK  232  A    between atoms: _567  and  _570
REMARK  233  A    between atoms: _570  and  _571
REMARK  234  A    between atoms: _571  and  _572
REMARK  235  A    between atoms: _572  and  _573
REMARK  236  A    between atoms: _573  and  _574
REMARK  237  A    between atoms: _578  and  _580
REMARK  238  A    between atoms: _580  and  _581
REMARK  239  A    between atoms: _580  and  _583
REMARK  240  A    between atoms: _583  and  _584
REMARK  241  A    between atoms: _587  and  _589
REMARK  242  A    between atoms: _589  and  _590
REMARK  243  A    between atoms: _589  and  _592
REMARK  244  A    between atoms: _592  and  _593
REMARK  245  A    between atoms: _596  and  _598
REMARK  246  A    between atoms: _598  and  _599
REMARK  247  A    between atoms: _598  and  _601
REMARK  248  A    between atoms: _601  and  _602
REMARK  249  A    between atoms: _605  and  _607
REMARK  250  A    between atoms: _607  and  _608
REMARK  251  A    between atoms: _607  and  _610
REMARK  252  A    between atoms: _610  and  _611
REMARK  253  A    between atoms: _617  and  _619
REMARK  254  A    between atoms: _619  and  _620
REMARK  255  A    between atoms: _622  and  _624
REMARK  256  A    between atoms: _624  and  _625
REMARK  257  A    between atoms: _624  and  _627
REMARK  258  A    between atoms: _627  and  _628
REMARK  259  A    between atoms: _631  and  _633
REMARK  260  A    between atoms: _633  and  _634
REMARK  261  A    between atoms: _633  and  _636
REMARK  262  A    between atoms: _636  and  _637
REMARK                            x       y       z     vdW  Elec       q    Type
REMARK                         _______ _______ _______ _____ _____    ______ ____
ROOT
ATOM      1  O   HOH     1      49.720  26.084  27.127  0.00  0.00    +0.000 OA
ENDROOT
TORSDOF 0
REMARK  Name = ../refined-set-2016/3e93/3e93_pocket.pdb
REMARK  262 active torsions:
REMARK  status: ('A' for Active; 'I' for Inactive)
REMARK    1  A    between atoms: _1  and  _3
REMARK    2  A    between atoms: _3  and  _4
REMARK    3  A    between atoms: _3  and  _6
REMARK    4  A    between atoms: _6  and  _7
REMARK    5  A    between atoms: _17  and  _19
REMARK    6  A    between atoms: _19  and  _20
REMARK    7  A    between atoms: _19  and  _22
REMARK    8  A    between atoms: _22  and  _23
REMARK    9  A    between atoms: _26  and  _27
REMARK   10  A    between atoms: _32  and  _34
REMARK   11  A    between atoms: _34  and  _35
REMARK   12  A    between atoms: _34  and  _37
REMARK   13  A    between atoms: _40  and  _42
REMARK   14  A    between atoms: _42  and  _43
REMARK   15  A    between atoms: _45  and  _47
REMARK   16  A    between atoms: _47  and  _48
REMARK   17  A    between atoms: _47  and  _50
REMARK   18  A    between atoms: _50  and  _51
REMARK   19  A    between atoms: _53  and  _55
REMARK   20  A    between atoms: _55  and  _56
REMARK   21  A    between atoms: _55  and  _58
REMARK   22  A    between atoms: _58  and  _59
REMARK   23  A    between atoms: _61  and  _63
REMARK   24  A    between atoms: _63  and  _64
REMARK   25  A    between atoms: _63  and  _66
REMARK   26  A    between atoms: _69  and  _71
REMARK   27  A    between atoms: _71  and  _72
REMARK   28  A    between atoms: _71  and  _74
REMARK   29  A    between atoms: _76  and  _78
REMARK   30  A    between atoms: _78  and  _79
REMARK   31  A    between atoms: _82  and  _84
REMARK   32  A    between atoms: _84  and  _85
REMARK   33  A    between atoms: _88  and  _90
REMARK   34  A    between atoms: _90  and  _91
REMARK   35  A    between atoms: _90  and  _93
REMARK   36  A    between atoms: _93  and  _94
REMARK   37  A    between atoms: _94  and  _95
REMARK   38  A    between atoms: _95  and  _96
REMARK   39  A    between atoms: _105  and  _107
REMARK   40  A    between atoms: _107  and  _108
REMARK   41  A    between atoms: _107  and  _110
REMARK   42  A    between atoms: _113  and  _115
REMARK   43  A    between atoms: _115  and  _116
REMARK   44  A    between atoms: _119  and  _121
REMARK   45  A    between atoms: _121  and  _122
REMARK   46  A    between atoms: _121  and  _124
REMARK   47  A    between atoms: _127  and  _129
REMARK   48  A    between atoms: _129  and  _130
REMARK   49  A    between atoms: _129  and  _132
REMARK   50  A    between atoms: _132  and  _133
REMARK   51  A    between atoms: _133  and  _134
REMARK   52  A    between atoms: _134  and  _135
REMARK   53  A    between atoms: _135  and  _136
REMARK   54  A    between atoms: _140  and  _142
REMARK   55  A    between atoms: _142  and  _143
REMARK   56  A    between atoms: _142  and  _145
REMARK   57  A    between atoms: _145  and  _146
REMARK   58  A    between atoms: _146  and  _147
REMARK   59  A    between atoms: _147  and  _148
REMARK   60  A    between atoms: _148  and  _149
REMARK   61  A    between atoms: _153  and  _155
REMARK   62  A    between atoms: _155  and  _156
REMARK   63  A    between atoms: _155  and  _158
REMARK   64  A    between atoms: _158  and  _159
REMARK   65  A    between atoms: _162  and  _164
REMARK   66  A    between atoms: _164  and  _165
REMARK   67  A    between atoms: _164  and  _167
REMARK   68  A    between atoms: _167  and  _168
REMARK   69  A    between atoms: _168  and  _169
REMARK   70  A    between atoms: _169  and  _170
REMARK   71  A    between atoms: _179  and  _181
REMARK   72  A    between atoms: _181  and  _182
REMARK   73  A    between atoms: _181  and  _184
REMARK   74  A    between atoms: _184  and  _185
REMARK   75  A    between atoms: _185  and  _186
REMARK   76  A    between atoms: _186  and  _187
REMARK   77  A    between atoms: _196  and  _198
REMARK   78  A    between atoms: _198  and  _199
REMARK   79  A    between atoms: _198  and  _201
REMARK   80  A    between atoms: _201  and  _202
REMARK   81  A    between atoms: _202  and  _203
REMARK   82  A    between atoms: _206  and  _208
REMARK   83  A    between atoms: _208  and  _209
REMARK   84  A    between atoms: _208  and  _211
REMARK   85  A    between atoms: _211  and  _212
REMARK   86  A    between atoms: _215  and  _217
REMARK   87  A    between atoms: _217  and  _218
REMARK   88  A    between atoms: _217  and  _220
REMARK   89  A    between atoms: _220  and  _221
REMARK   90  A    between atoms: _224  and  _226
REMARK   91  A    between atoms: _226  and  _227
REMARK   92  A    between atoms: _226  and  _229
REMARK   93  A    between atoms: _229  and  _230
REMARK   94  A    between atoms: _233  and  _235
REMARK   95  A    between atoms: _235  and  _236
REMARK   96  A    between atoms: _235  and  _238
REMARK   97  A    between atoms: _238  and  _239
REMARK   98  A    between atoms: _239  and  _240
REMARK   99  A    between atoms: _242  and  _244
REMARK  100  A    between atoms: _244  and  _245
REMARK  101  A    between atoms: _244  and  _247
REMARK  102  A    between atoms: _247  and  _248
REMARK  103  A    between atoms: _253  and  _255
REMARK  104  A    between atoms: _255  and  _256
REMARK  105  A    between atoms: _255  and  _258
REMARK  106  A    between atoms: _258  and  _259
REMARK  107  A    between atoms: _264  and  _266
REMARK  108  A    between atoms: _266  and  _267
REMARK  109  A    between atoms: _266  and  _269
REMARK  110  A    between atoms: _272  and  _274
REMARK  111  A    between atoms: _274  and  _275
REMARK  112  A    between atoms: _274  and  _277
REMARK  113  A    between atoms: _277  and  _278
REMARK  114  A    between atoms: _281  and  _283
REMARK  115  A    between atoms: _283  and  _284
REMARK  116  A    between atoms: _286  and  _288
REMARK  117  A    between atoms: _288  and  _289
REMARK  118  A    between atoms: _288  and  _291
REMARK  119  A    between atoms: _291  and  _292
REMARK  120  A    between atoms: _295  and  _297
REMARK  121  A    between atoms: _297  and  _298
REMARK  122  A    between atoms: _297  and  _300
REMARK  123  A    between atoms: _300  and  _301
REMARK  124  A    between atoms: _304  and  _306
REMARK  125  A    between atoms: _306  and  _307
REMARK  126  A    between atoms: _306  and  _309
REMARK  127  A    between atoms: _309  and  _310
REMARK  128  A    between atoms: _313  and  _315
REMARK  129  A    between atoms: _315  and  _316
REMARK  130  A    between atoms: _315  and  _318
REMARK  131  A    between atoms: _318  and  _319
REMARK  132  A    between atoms: _324  and  _325
REMARK  133  A    between atoms: _327  and  _329
REMARK  134  A    between atoms: _329  and  _330
REMARK  135  A    between atoms: _329  and  _332
REMARK  136  A    between atoms: _332  and  _333
REMARK  137  A    between atoms: _336  and  _338
REMARK  138  A    between atoms: _338  and  _339
REMARK  139  A    between atoms: _338  and  _341
REMARK  140  A    between atoms: _344  and  _346
REMARK  141  A    between atoms: _346  and  _347
REMARK  142  A    between atoms: _346  and  _349
REMARK  143  A    between atoms: _349  and  _350
REMARK  144  A    between atoms: _353  and  _355
REMARK  145  A    between atoms: _355  and  _356
REMARK  146  A    between atoms: _355  and  _358
REMARK  147  A    between atoms: _358  and  _359
REMARK  148  A    between atoms: _364  and  _366
REMARK  149  A    between atoms: _366  and  _367
REMARK  150  A    between atoms: _366  and  _369
REMARK  151  A    between atoms: _369  and  _370
REMARK  152  A    between atoms: _373  and  _375
REMARK  153  A    between atoms: _375  and  _376
REMARK  154  A    between atoms: _375  and  _378
REMARK  155  A    between atoms: _378  and  _379
REMARK  156  A    between atoms: _379  and  _380
REMARK  157  A    between atoms: _382  and  _384
REMARK  158  A    between atoms: _384  and  _385
REMARK  159  A    between atoms: _387  and  _389
REMARK  160  A    between atoms: _389  and  _390
REMARK  161  A    between atoms: _393  and  _395
REMARK  162  A    between atoms: _395  and  _396
REMARK  163  A    between atoms: _395  and  _398
REMARK  164  A    between atoms: _398  and  _399
REMARK  165  A    between atoms: _402  and  _404
REMARK  166  A    between atoms: _404  and  _405
REMARK  167  A    between atoms: _404  and  _407
REMARK  168  A    between atoms: _407  and  _408
REMARK  169  A    between atoms: _413  and  _415
REMARK  170  A    between atoms: _415  and  _416
REMARK  171  A    between atoms: _418  and  _420
REMARK  172  A    between atoms: _420  and  _421
REMARK  173  A    between atoms: _420  and  _423
REMARK  174  A    between atoms: _423  and  _424
REMARK  175  A    between atoms: _427  and  _429
REMARK  176  A    between atoms: _429  and  _430
REMARK  177  A    between atoms: _429  and  _432
REMARK  178  A    between atoms: _432  and  _433
REMARK  179  A    between atoms: _438  and  _439
REMARK  180  A    between atoms: _441  and  _443
REMARK  181  A    between atoms: _443  and  _444
REMARK  182  A    between atoms: _443  and  _446
REMARK  183  A    between atoms: _446  and  _447
REMARK  184  A    between atoms: _450  and  _452
REMARK  185  A    between atoms: _452  and  _453
REMARK  186  A    between atoms: _452  and  _455
REMARK  187  A    between atoms: _455  and  _456
REMARK  188  A    between atoms: _461  and  _463
REMARK  189  A    between atoms: _463  and  _464
REMARK  190  A    between atoms: _467  and  _469
REMARK  191  A    between atoms: _469  and  _470
REMARK  192  A    between atoms: _469  and  _472
REMARK  193  A    between atoms: _472  and  _473
REMARK  194  A    between atoms: _476  and  _478
REMARK  195  A    between atoms: _478  and  _479
REMARK  196  A    between atoms: _478  and  _481
REMARK  197  A    between atoms: _481  and  _482
REMARK  198  A    between atoms: _485  and  _487
REMARK  199  A    between atoms: _487  and  _488
REMARK  200  A    between atoms: _487  and  _490
REMARK  201  A    between atoms: _490  and  _491
REMARK  202  A    between atoms: _496  and  _498
REMARK  203  A    between atoms: _498  and  _499
REMARK  204  A    between atoms: _498  and  _501
REMARK  205  A    between atoms: _501  and  _502
REMARK  206  A    between atoms: _502  and  _503
REMARK  207  A    between atoms: _503  and  _504
REMARK  208  A    between atoms: _513  and  _515
REMARK  209  A    between atoms: _515  and  _516
REMARK  210  A    between atoms: _515  and  _518
REMARK  211  A    between atoms: _518  and  _519
REMARK  212  A    between atoms: _522  and  _524
REMARK  213  A    between atoms: _524  and  _525
REMARK  214  A    between atoms: _524  and  _527
REMARK  215  A    between atoms: _527  and  _528
REMARK  216  A    between atoms: _531  and  _533
REMARK  217  A    between atoms: _533  and  _534
REMARK  218  A    between atoms: _533  and  _536
REMARK  219  A    between atoms: _536  and  _537
REMARK  220  A    between atoms: _539  and  _541
REMARK  221  A    between atoms: _541  and  _542
REMARK  222  A    between atoms: _541  and  _544
REMARK  223  A    between atoms: _544  and  _545
REMARK  224  A    between atoms: _550  and  _552
REMARK  225  A    between atoms: _552  and  _553
REMARK  226  A    between atoms: _552  and  _555
REMARK  227  A    between atoms: _555  and  _556
REMARK  228  A    between atoms: _559  and  _561
REMARK  229  A    between atoms: _561  and  _562
REMARK  230  A    between atoms: _565  and  _567
REMARK  231  A    between atoms: _567  and  _568
REMARK  232  A    between atoms: _567  and  _570
REMARK  233  A    between atoms: _570  and  _571
REMARK  234  A    between atoms: _571  and  _572
REMARK  235  A    between atoms: _572  and  _573
REMARK  236  A    between atoms: _573  and  _574
REMARK  237  A    between atoms: _578  and  _580
REMARK  238  A    between atoms: _580  and  _581
REMARK  239  A    between atoms: _580  and  _583
REMARK  240  A    between atoms: _583  and  _584
REMARK  241  A    between atoms: _587  and  _589
REMARK  242  A    between atoms: _589  and  _590
REMARK  243  A    between atoms: _589  and  _592
REMARK  244  A    between atoms: _592  and  _593
REMARK  245  A    between atoms: _596  and  _598
REMARK  246  A    between atoms: _598  and  _599
REMARK  247  A    between atoms: _598  and  _601
REMARK  248  A    between atoms: _601  and  _602
REMARK  249  A    between atoms: _605  and  _607
REMARK  250  A    between atoms: _607  and  _608
REMARK  251  A    between atoms: _607  and  _610
REMARK  252  A    between atoms: _610  and  _611
REMARK  253  A    between atoms: _617  and  _619
REMARK  254  A    between atoms: _619  and  _620
REMARK  255  A    between atoms: _622  and  _624
REMARK  256  A    between atoms: _624  and  _625
REMARK  257  A    between atoms: _624  and  _627
REMARK  258  A    between atoms: _627  and  _628
REMARK  259  A    between atoms: _631  and  _633
REMARK  260  A    between atoms: _633  and  _634
REMARK  261  A    between atoms: _633  and  _636
REMARK  262  A    between atoms: _636  and  _637
REMARK                            x       y       z     vdW  Elec       q    Type
REMARK                         _______ _______ _______ _____ _____    ______ ____
ROOT
ATOM      1  O   HOH     1      49.303  38.603  28.892  0.00  0.00    +0.000 OA
ENDROOT
TORSDOF 0
REMARK  Name = ../refined-set-2016/3e93/3e93_pocket.pdb
REMARK  262 active torsions:
REMARK  status: ('A' for Active; 'I' for Inactive)
REMARK    1  A    between atoms: _1  and  _3
REMARK    2  A    between atoms: _3  and  _4
REMARK    3  A    between atoms: _3  and  _6
REMARK    4  A    between atoms: _6  and  _7
REMARK    5  A    between atoms: _17  and  _19
REMARK    6  A    between atoms: _19  and  _20
REMARK    7  A    between atoms: _19  and  _22
REMARK    8  A    between atoms: _22  and  _23
REMARK    9  A    between atoms: _26  and  _27
REMARK   10  A    between atoms: _32  and  _34
REMARK   11  A    between atoms: _34  and  _35
REMARK   12  A    between atoms: _34  and  _37
REMARK   13  A    between atoms: _40  and  _42
REMARK   14  A    between atoms: _42  and  _43
REMARK   15  A    between atoms: _45  and  _47
REMARK   16  A    between atoms: _47  and  _48
REMARK   17  A    between atoms: _47  and  _50
REMARK   18  A    between atoms: _50  and  _51
REMARK   19  A    between atoms: _53  and  _55
REMARK   20  A    between atoms: _55  and  _56
REMARK   21  A    between atoms: _55  and  _58
REMARK   22  A    between atoms: _58  and  _59
REMARK   23  A    between atoms: _61  and  _63
REMARK   24  A    between atoms: _63  and  _64
REMARK   25  A    between atoms: _63  and  _66
REMARK   26  A    between atoms: _69  and  _71
REMARK   27  A    between atoms: _71  and  _72
REMARK   28  A    between atoms: _71  and  _74
REMARK   29  A    between atoms: _76  and  _78
REMARK   30  A    between atoms: _78  and  _79
REMARK   31  A    between atoms: _82  and  _84
REMARK   32  A    between atoms: _84  and  _85
REMARK   33  A    between atoms: _88  and  _90
REMARK   34  A    between atoms: _90  and  _91
REMARK   35  A    between atoms: _90  and  _93
REMARK   36  A    between atoms: _93  and  _94
REMARK   37  A    between atoms: _94  and  _95
REMARK   38  A    between atoms: _95  and  _96
REMARK   39  A    between atoms: _105  and  _107
REMARK   40  A    between atoms: _107  and  _108
REMARK   41  A    between atoms: _107  and  _110
REMARK   42  A    between atoms: _113  and  _115
REMARK   43  A    between atoms: _115  and  _116
REMARK   44  A    between atoms: _119  and  _121
REMARK   45  A    between atoms: _121  and  _122
REMARK   46  A    between atoms: _121  and  _124
REMARK   47  A    between atoms: _127  and  _129
REMARK   48  A    between atoms: _129  and  _130
REMARK   49  A    between atoms: _129  and  _132
REMARK   50  A    between atoms: _132  and  _133
REMARK   51  A    between atoms: _133  and  _134
REMARK   52  A    between atoms: _134  and  _135
REMARK   53  A    between atoms: _135  and  _136
REMARK   54  A    between atoms: _140  and  _142
REMARK   55  A    between atoms: _142  and  _143
REMARK   56  A    between atoms: _142  and  _145
REMARK   57  A    between atoms: _145  and  _146
REMARK   58  A    between atoms: _146  and  _147
REMARK   59  A    between atoms: _147  and  _148
REMARK   60  A    between atoms: _148  and  _149
REMARK   61  A    between atoms: _153  and  _155
REMARK   62  A    between atoms: _155  and  _156
REMARK   63  A    between atoms: _155  and  _158
REMARK   64  A    between atoms: _158  and  _159
REMARK   65  A    between atoms: _162  and  _164
REMARK   66  A    between atoms: _164  and  _165
REMARK   67  A    between atoms: _164  and  _167
REMARK   68  A    between atoms: _167  and  _168
REMARK   69  A    between atoms: _168  and  _169
REMARK   70  A    between atoms: _169  and  _170
REMARK   71  A    between atoms: _179  and  _181
REMARK   72  A    between atoms: _181  and  _182
REMARK   73  A    between atoms: _181  and  _184
REMARK   74  A    between atoms: _184  and  _185
REMARK   75  A    between atoms: _185  and  _186
REMARK   76  A    between atoms: _186  and  _187
REMARK   77  A    between atoms: _196  and  _198
REMARK   78  A    between atoms: _198  and  _199
REMARK   79  A    between atoms: _198  and  _201
REMARK   80  A    between atoms: _201  and  _202
REMARK   81  A    between atoms: _202  and  _203
REMARK   82  A    between atoms: _206  and  _208
REMARK   83  A    between atoms: _208  and  _209
REMARK   84  A    between atoms: _208  and  _211
REMARK   85  A    between atoms: _211  and  _212
REMARK   86  A    between atoms: _215  and  _217
REMARK   87  A    between atoms: _217  and  _218
REMARK   88  A    between atoms: _217  and  _220
REMARK   89  A    between atoms: _220  and  _221
REMARK   90  A    between atoms: _224  and  _226
REMARK   91  A    between atoms: _226  and  _227
REMARK   92  A    between atoms: _226  and  _229
REMARK   93  A    between atoms: _229  and  _230
REMARK   94  A    between atoms: _233  and  _235
REMARK   95  A    between atoms: _235  and  _236
REMARK   96  A    between atoms: _235  and  _238
REMARK   97  A    between atoms: _238  and  _239
REMARK   98  A    between atoms: _239  and  _240
REMARK   99  A    between atoms: _242  and  _244
REMARK  100  A    between atoms: _244  and  _245
REMARK  101  A    between atoms: _244  and  _247
REMARK  102  A    between atoms: _247  and  _248
REMARK  103  A    between atoms: _253  and  _255
REMARK  104  A    between atoms: _255  and  _256
REMARK  105  A    between atoms: _255  and  _258
REMARK  106  A    between atoms: _258  and  _259
REMARK  107  A    between atoms: _264  and  _266
REMARK  108  A    between atoms: _266  and  _267
REMARK  109  A    between atoms: _266  and  _269
REMARK  110  A    between atoms: _272  and  _274
REMARK  111  A    between atoms: _274  and  _275
REMARK  112  A    between atoms: _274  and  _277
REMARK  113  A    between atoms: _277  and  _278
REMARK  114  A    between atoms: _281  and  _283
REMARK  115  A    between atoms: _283  and  _284
REMARK  116  A    between atoms: _286  and  _288
REMARK  117  A    between atoms: _288  and  _289
REMARK  118  A    between atoms: _288  and  _291
REMARK  119  A    between atoms: _291  and  _292
REMARK  120  A    between atoms: _295  and  _297
REMARK  121  A    between atoms: _297  and  _298
REMARK  122  A    between atoms: _297  and  _300
REMARK  123  A    between atoms: _300  and  _301
REMARK  124  A    between atoms: _304  and  _306
REMARK  125  A    between atoms: _306  and  _307
REMARK  126  A    between atoms: _306  and  _309
REMARK  127  A    between atoms: _309  and  _310
REMARK  128  A    between atoms: _313  and  _315
REMARK  129  A    between atoms: _315  and  _316
REMARK  130  A    between atoms: _315  and  _318
REMARK  131  A    between atoms: _318  and  _319
REMARK  132  A    between atoms: _324  and  _325
REMARK  133  A    between atoms: _327  and  _329
REMARK  134  A    between atoms: _329  and  _330
REMARK  135  A    between atoms: _329  and  _332
REMARK  136  A    between atoms: _332  and  _333
REMARK  137  A    between atoms: _336  and  _338
REMARK  138  A    between atoms: _338  and  _339
REMARK  139  A    between atoms: _338  and  _341
REMARK  140  A    between atoms: _344  and  _346
REMARK  141  A    between atoms: _346  and  _347
REMARK  142  A    between atoms: _346  and  _349
REMARK  143  A    between atoms: _349  and  _350
REMARK  144  A    between atoms: _353  and  _355
REMARK  145  A    between atoms: _355  and  _356
REMARK  146  A    between atoms: _355  and  _358
REMARK  147  A    between atoms: _358  and  _359
REMARK  148  A    between atoms: _364  and  _366
REMARK  149  A    between atoms: _366  and  _367
REMARK  150  A    between atoms: _366  and  _369
REMARK  151  A    between atoms: _369  and  _370
REMARK  152  A    between atoms: _373  and  _375
REMARK  153  A    between atoms: _375  and  _376
REMARK  154  A    between atoms: _375  and  _378
REMARK  155  A    between atoms: _378  and  _379
REMARK  156  A    between atoms: _379  and  _380
REMARK  157  A    between atoms: _382  and  _384
REMARK  158  A    between atoms: _384  and  _385
REMARK  159  A    between atoms: _387  and  _389
REMARK  160  A    between atoms: _389  and  _390
REMARK  161  A    between atoms: _393  and  _395
REMARK  162  A    between atoms: _395  and  _396
REMARK  163  A    between atoms: _395  and  _398
REMARK  164  A    between atoms: _398  and  _399
REMARK  165  A    between atoms: _402  and  _404
REMARK  166  A    between atoms: _404  and  _405
REMARK  167  A    between atoms: _404  and  _407
REMARK  168  A    between atoms: _407  and  _408
REMARK  169  A    between atoms: _413  and  _415
REMARK  170  A    between atoms: _415  and  _416
REMARK  171  A    between atoms: _418  and  _420
REMARK  172  A    between atoms: _420  and  _421
REMARK  173  A    between atoms: _420  and  _423
REMARK  174  A    between atoms: _423  and  _424
REMARK  175  A    between atoms: _427  and  _429
REMARK  176  A    between atoms: _429  and  _430
REMARK  177  A    between atoms: _429  and  _432
REMARK  178  A    between atoms: _432  and  _433
REMARK  179  A    between atoms: _438  and  _439
REMARK  180  A    between atoms: _441  and  _443
REMARK  181  A    between atoms: _443  and  _444
REMARK  182  A    between atoms: _443  and  _446
REMARK  183  A    between atoms: _446  and  _447
REMARK  184  A    between atoms: _450  and  _452
REMARK  185  A    between atoms: _452  and  _453
REMARK  186  A    between atoms: _452  and  _455
REMARK  187  A    between atoms: _455  and  _456
REMARK  188  A    between atoms: _461  and  _463
REMARK  189  A    between atoms: _463  and  _464
REMARK  190  A    between atoms: _467  and  _469
REMARK  191  A    between atoms: _469  and  _470
REMARK  192  A    between atoms: _469  and  _472
REMARK  193  A    between atoms: _472  and  _473
REMARK  194  A    between atoms: _476  and  _478
REMARK  195  A    between atoms: _478  and  _479
REMARK  196  A    between atoms: _478  and  _481
REMARK  197  A    between atoms: _481  and  _482
REMARK  198  A    between atoms: _485  and  _487
REMARK  199  A    between atoms: _487  and  _488
REMARK  200  A    between atoms: _487  and  _490
REMARK  201  A    between atoms: _490  and  _491
REMARK  202  A    between atoms: _496  and  _498
REMARK  203  A    between atoms: _498  and  _499
REMARK  204  A    between atoms: _498  and  _501
REMARK  205  A    between atoms: _501  and  _502
REMARK  206  A    between atoms: _502  and  _503
REMARK  207  A    between atoms: _503  and  _504
REMARK  208  A    between atoms: _513  and  _515
REMARK  209  A    between atoms: _515  and  _516
REMARK  210  A    between atoms: _515  and  _518
REMARK  211  A    between atoms: _518  and  _519
REMARK  212  A    between atoms: _522  and  _524
REMARK  213  A    between atoms: _524  and  _525
REMARK  214  A    between atoms: _524  and  _527
REMARK  215  A    between atoms: _527  and  _528
REMARK  216  A    between atoms: _531  and  _533
REMARK  217  A    between atoms: _533  and  _534
REMARK  218  A    between atoms: _533  and  _536
REMARK  219  A    between atoms: _536  and  _537
REMARK  220  A    between atoms: _539  and  _541
REMARK  221  A    between atoms: _541  and  _542
REMARK  222  A    between atoms: _541  and  _544
REMARK  223  A    between atoms: _544  and  _545
REMARK  224  A    between atoms: _550  and  _552
REMARK  225  A    between atoms: _552  and  _553
REMARK  226  A    between atoms: _552  and  _555
REMARK  227  A    between atoms: _555  and  _556
REMARK  228  A    between atoms: _559  and  _561
REMARK  229  A    between atoms: _561  and  _562
REMARK  230  A    between atoms: _565  and  _567
REMARK  231  A    between atoms: _567  and  _568
REMARK  232  A    between atoms: _567  and  _570
REMARK  233  A    between atoms: _570  and  _571
REMARK  234  A    between atoms: _571  and  _572
REMARK  235  A    between atoms: _572  and  _573
REMARK  236  A    between atoms: _573  and  _574
REMARK  237  A    between atoms: _578  and  _580
REMARK  238  A    between atoms: _580  and  _581
REMARK  239  A    between atoms: _580  and  _583
REMARK  240  A    between atoms: _583  and  _584
REMARK  241  A    between atoms: _587  and  _589
REMARK  242  A    between atoms: _589  and  _590
REMARK  243  A    between atoms: _589  and  _592
REMARK  244  A    between atoms: _592  and  _593
REMARK  245  A    between atoms: _596  and  _598
REMARK  246  A    between atoms: _598  and  _599
REMARK  247  A    between atoms: _598  and  _601
REMARK  248  A    between atoms: _601  and  _602
REMARK  249  A    between atoms: _605  and  _607
REMARK  250  A    between atoms: _607  and  _608
REMARK  251  A    between atoms: _607  and  _610
REMARK  252  A    between atoms: _610  and  _611
REMARK  253  A    between atoms: _617  and  _619
REMARK  254  A    between atoms: _619  and  _620
REMARK  255  A    between atoms: _622  and  _624
REMARK  256  A    between atoms: _624  and  _625
REMARK  257  A    between atoms: _624  and  _627
REMARK  258  A    between atoms: _627  and  _628
REMARK  259  A    between atoms: _631  and  _633
REMARK  260  A    between atoms: _633  and  _634
REMARK  261  A    between atoms: _633  and  _636
REMARK  262  A    between atoms: _636  and  _637
REMARK                            x       y       z     vdW  Elec       q    Type
REMARK                         _______ _______ _______ _____ _____    ______ ____
ROOT
ATOM      1  O   HOH     1      49.359  34.310  33.912  0.00  0.00    +0.000 OA
ENDROOT
TORSDOF 0
REMARK  Name = ../refined-set-2016/3e93/3e93_pocket.pdb
REMARK  262 active torsions:
REMARK  status: ('A' for Active; 'I' for Inactive)
REMARK    1  A    between atoms: _1  and  _3
REMARK    2  A    between atoms: _3  and  _4
REMARK    3  A    between atoms: _3  and  _6
REMARK    4  A    between atoms: _6  and  _7
REMARK    5  A    between atoms: _17  and  _19
REMARK    6  A    between atoms: _19  and  _20
REMARK    7  A    between atoms: _19  and  _22
REMARK    8  A    between atoms: _22  and  _23
REMARK    9  A    between atoms: _26  and  _27
REMARK   10  A    between atoms: _32  and  _34
REMARK   11  A    between atoms: _34  and  _35
REMARK   12  A    between atoms: _34  and  _37
REMARK   13  A    between atoms: _40  and  _42
REMARK   14  A    between atoms: _42  and  _43
REMARK   15  A    between atoms: _45  and  _47
REMARK   16  A    between atoms: _47  and  _48
REMARK   17  A    between atoms: _47  and  _50
REMARK   18  A    between atoms: _50  and  _51
REMARK   19  A    between atoms: _53  and  _55
REMARK   20  A    between atoms: _55  and  _56
REMARK   21  A    between atoms: _55  and  _58
REMARK   22  A    between atoms: _58  and  _59
REMARK   23  A    between atoms: _61  and  _63
REMARK   24  A    between atoms: _63  and  _64
REMARK   25  A    between atoms: _63  and  _66
REMARK   26  A    between atoms: _69  and  _71
REMARK   27  A    between atoms: _71  and  _72
REMARK   28  A    between atoms: _71  and  _74
REMARK   29  A    between atoms: _76  and  _78
REMARK   30  A    between atoms: _78  and  _79
REMARK   31  A    between atoms: _82  and  _84
REMARK   32  A    between atoms: _84  and  _85
REMARK   33  A    between atoms: _88  and  _90
REMARK   34  A    between atoms: _90  and  _91
REMARK   35  A    between atoms: _90  and  _93
REMARK   36  A    between atoms: _93  and  _94
REMARK   37  A    between atoms: _94  and  _95
REMARK   38  A    between atoms: _95  and  _96
REMARK   39  A    between atoms: _105  and  _107
REMARK   40  A    between atoms: _107  and  _108
REMARK   41  A    between atoms: _107  and  _110
REMARK   42  A    between atoms: _113  and  _115
REMARK   43  A    between atoms: _115  and  _116
REMARK   44  A    between atoms: _119  and  _121
REMARK   45  A    between atoms: _121  and  _122
REMARK   46  A    between atoms: _121  and  _124
REMARK   47  A    between atoms: _127  and  _129
REMARK   48  A    between atoms: _129  and  _130
REMARK   49  A    between atoms: _129  and  _132
REMARK   50  A    between atoms: _132  and  _133
REMARK   51  A    between atoms: _133  and  _134
REMARK   52  A    between atoms: _134  and  _135
REMARK   53  A    between atoms: _135  and  _136
REMARK   54  A    between atoms: _140  and  _142
REMARK   55  A    between atoms: _142  and  _143
REMARK   56  A    between atoms: _142  and  _145
REMARK   57  A    between atoms: _145  and  _146
REMARK   58  A    between atoms: _146  and  _147
REMARK   59  A    between atoms: _147  and  _148
REMARK   60  A    between atoms: _148  and  _149
REMARK   61  A    between atoms: _153  and  _155
REMARK   62  A    between atoms: _155  and  _156
REMARK   63  A    between atoms: _155  and  _158
REMARK   64  A    between atoms: _158  and  _159
REMARK   65  A    between atoms: _162  and  _164
REMARK   66  A    between atoms: _164  and  _165
REMARK   67  A    between atoms: _164  and  _167
REMARK   68  A    between atoms: _167  and  _168
REMARK   69  A    between atoms: _168  and  _169
REMARK   70  A    between atoms: _169  and  _170
REMARK   71  A    between atoms: _179  and  _181
REMARK   72  A    between atoms: _181  and  _182
REMARK   73  A    between atoms: _181  and  _184
REMARK   74  A    between atoms: _184  and  _185
REMARK   75  A    between atoms: _185  and  _186
REMARK   76  A    between atoms: _186  and  _187
REMARK   77  A    between atoms: _196  and  _198
REMARK   78  A    between atoms: _198  and  _199
REMARK   79  A    between atoms: _198  and  _201
REMARK   80  A    between atoms: _201  and  _202
REMARK   81  A    between atoms: _202  and  _203
REMARK   82  A    between atoms: _206  and  _208
REMARK   83  A    between atoms: _208  and  _209
REMARK   84  A    between atoms: _208  and  _211
REMARK   85  A    between atoms: _211  and  _212
REMARK   86  A    between atoms: _215  and  _217
REMARK   87  A    between atoms: _217  and  _218
REMARK   88  A    between atoms: _217  and  _220
REMARK   89  A    between atoms: _220  and  _221
REMARK   90  A    between atoms: _224  and  _226
REMARK   91  A    between atoms: _226  and  _227
REMARK   92  A    between atoms: _226  and  _229
REMARK   93  A    between atoms: _229  and  _230
REMARK   94  A    between atoms: _233  and  _235
REMARK   95  A    between atoms: _235  and  _236
REMARK   96  A    between atoms: _235  and  _238
REMARK   97  A    between atoms: _238  and  _239
REMARK   98  A    between atoms: _239  and  _240
REMARK   99  A    between atoms: _242  and  _244
REMARK  100  A    between atoms: _244  and  _245
REMARK  101  A    between atoms: _244  and  _247
REMARK  102  A    between atoms: _247  and  _248
REMARK  103  A    between atoms: _253  and  _255
REMARK  104  A    between atoms: _255  and  _256
REMARK  105  A    between atoms: _255  and  _258
REMARK  106  A    between atoms: _258  and  _259
REMARK  107  A    between atoms: _264  and  _266
REMARK  108  A    between atoms: _266  and  _267
REMARK  109  A    between atoms: _266  and  _269
REMARK  110  A    between atoms: _272  and  _274
REMARK  111  A    between atoms: _274  and  _275
REMARK  112  A    between atoms: _274  and  _277
REMARK  113  A    between atoms: _277  and  _278
REMARK  114  A    between atoms: _281  and  _283
REMARK  115  A    between atoms: _283  and  _284
REMARK  116  A    between atoms: _286  and  _288
REMARK  117  A    between atoms: _288  and  _289
REMARK  118  A    between atoms: _288  and  _291
REMARK  119  A    between atoms: _291  and  _292
REMARK  120  A    between atoms: _295  and  _297
REMARK  121  A    between atoms: _297  and  _298
REMARK  122  A    between atoms: _297  and  _300
REMARK  123  A    between atoms: _300  and  _301
REMARK  124  A    between atoms: _304  and  _306
REMARK  125  A    between atoms: _306  and  _307
REMARK  126  A    between atoms: _306  and  _309
REMARK  127  A    between atoms: _309  and  _310
REMARK  128  A    between atoms: _313  and  _315
REMARK  129  A    between atoms: _315  and  _316
REMARK  130  A    between atoms: _315  and  _318
REMARK  131  A    between atoms: _318  and  _319
REMARK  132  A    between atoms: _324  and  _325
REMARK  133  A    between atoms: _327  and  _329
REMARK  134  A    between atoms: _329  and  _330
REMARK  135  A    between atoms: _329  and  _332
REMARK  136  A    between atoms: _332  and  _333
REMARK  137  A    between atoms: _336  and  _338
REMARK  138  A    between atoms: _338  and  _339
REMARK  139  A    between atoms: _338  and  _341
REMARK  140  A    between atoms: _344  and  _346
REMARK  141  A    between atoms: _346  and  _347
REMARK  142  A    between atoms: _346  and  _349
REMARK  143  A    between atoms: _349  and  _350
REMARK  144  A    between atoms: _353  and  _355
REMARK  145  A    between atoms: _355  and  _356
REMARK  146  A    between atoms: _355  and  _358
REMARK  147  A    between atoms: _358  and  _359
REMARK  148  A    between atoms: _364  and  _366
REMARK  149  A    between atoms: _366  and  _367
REMARK  150  A    between atoms: _366  and  _369
REMARK  151  A    between atoms: _369  and  _370
REMARK  152  A    between atoms: _373  and  _375
REMARK  153  A    between atoms: _375  and  _376
REMARK  154  A    between atoms: _375  and  _378
REMARK  155  A    between atoms: _378  and  _379
REMARK  156  A    between atoms: _379  and  _380
REMARK  157  A    between atoms: _382  and  _384
REMARK  158  A    between atoms: _384  and  _385
REMARK  159  A    between atoms: _387  and  _389
REMARK  160  A    between atoms: _389  and  _390
REMARK  161  A    between atoms: _393  and  _395
REMARK  162  A    between atoms: _395  and  _396
REMARK  163  A    between atoms: _395  and  _398
REMARK  164  A    between atoms: _398  and  _399
REMARK  165  A    between atoms: _402  and  _404
REMARK  166  A    between atoms: _404  and  _405
REMARK  167  A    between atoms: _404  and  _407
REMARK  168  A    between atoms: _407  and  _408
REMARK  169  A    between atoms: _413  and  _415
REMARK  170  A    between atoms: _415  and  _416
REMARK  171  A    between atoms: _418  and  _420
REMARK  172  A    between atoms: _420  and  _421
REMARK  173  A    between atoms: _420  and  _423
REMARK  174  A    between atoms: _423  and  _424
REMARK  175  A    between atoms: _427  and  _429
REMARK  176  A    between atoms: _429  and  _430
REMARK  177  A    between atoms: _429  and  _432
REMARK  178  A    between atoms: _432  and  _433
REMARK  179  A    between atoms: _438  and  _439
REMARK  180  A    between atoms: _441  and  _443
REMARK  181  A    between atoms: _443  and  _444
REMARK  182  A    between atoms: _443  and  _446
REMARK  183  A    between atoms: _446  and  _447
REMARK  184  A    between atoms: _450  and  _452
REMARK  185  A    between atoms: _452  and  _453
REMARK  186  A    between atoms: _452  and  _455
REMARK  187  A    between atoms: _455  and  _456
REMARK  188  A    between atoms: _461  and  _463
REMARK  189  A    between atoms: _463  and  _464
REMARK  190  A    between atoms: _467  and  _469
REMARK  191  A    between atoms: _469  and  _470
REMARK  192  A    between atoms: _469  and  _472
REMARK  193  A    between atoms: _472  and  _473
REMARK  194  A    between atoms: _476  and  _478
REMARK  195  A    between atoms: _478  and  _479
REMARK  196  A    between atoms: _478  and  _481
REMARK  197  A    between atoms: _481  and  _482
REMARK  198  A    between atoms: _485  and  _487
REMARK  199  A    between atoms: _487  and  _488
REMARK  200  A    between atoms: _487  and  _490
REMARK  201  A    between atoms: _490  and  _491
REMARK  202  A    between atoms: _496  and  _498
REMARK  203  A    between atoms: _498  and  _499
REMARK  204  A    between atoms: _498  and  _501
REMARK  205  A    between atoms: _501  and  _502
REMARK  206  A    between atoms: _502  and  _503
REMARK  207  A    between atoms: _503  and  _504
REMARK  208  A    between atoms: _513  and  _515
REMARK  209  A    between atoms: _515  and  _516
REMARK  210  A    between atoms: _515  and  _518
REMARK  211  A    between atoms: _518  and  _519
REMARK  212  A    between atoms: _522  and  _524
REMARK  213  A    between atoms: _524  and  _525
REMARK  214  A    between atoms: _524  and  _527
REMARK  215  A    between atoms: _527  and  _528
REMARK  216  A    between atoms: _531  and  _533
REMARK  217  A    between atoms: _533  and  _534
REMARK  218  A    between atoms: _533  and  _536
REMARK  219  A    between atoms: _536  and  _537
REMARK  220  A    between atoms: _539  and  _541
REMARK  221  A    between atoms: _541  and  _542
REMARK  222  A    between atoms: _541  and  _544
REMARK  223  A    between atoms: _544  and  _545
REMARK  224  A    between atoms: _550  and  _552
REMARK  225  A    between atoms: _552  and  _553
REMARK  226  A    between atoms: _552  and  _555
REMARK  227  A    between atoms: _555  and  _556
REMARK  228  A    between atoms: _559  and  _561
REMARK  229  A    between atoms: _561  and  _562
REMARK  230  A    between atoms: _565  and  _567
REMARK  231  A    between atoms: _567  and  _568
REMARK  232  A    between atoms: _567  and  _570
REMARK  233  A    between atoms: _570  and  _571
REMARK  234  A    between atoms: _571  and  _572
REMARK  235  A    between atoms: _572  and  _573
REMARK  236  A    between atoms: _573  and  _574
REMARK  237  A    between atoms: _578  and  _580
REMARK  238  A    between atoms: _580  and  _581
REMARK  239  A    between atoms: _580  and  _583
REMARK  240  A    between atoms: _583  and  _584
REMARK  241  A    between atoms: _587  and  _589
REMARK  242  A    between atoms: _589  and  _590
REMARK  243  A    between atoms: _589  and  _592
REMARK  244  A    between atoms: _592  and  _593
REMARK  245  A    between atoms: _596  and  _598
REMARK  246  A    between atoms: _598  and  _599
REMARK  247  A    between atoms: _598  and  _601
REMARK  248  A    between atoms: _601  and  _602
REMARK  249  A    between atoms: _605  and  _607
REMARK  250  A    between atoms: _607  and  _608
REMARK  251  A    between atoms: _607  and  _610
REMARK  252  A    between atoms: _610  and  _611
REMARK  253  A    between atoms: _617  and  _619
REMARK  254  A    between atoms: _619  and  _620
REMARK  255  A    between atoms: _622  and  _624
REMARK  256  A    between atoms: _624  and  _625
REMARK  257  A    between atoms: _624  and  _627
REMARK  258  A    between atoms: _627  and  _628
REMARK  259  A    between atoms: _631  and  _633
REMARK  260  A    between atoms: _633  and  _634
REMARK  261  A    between atoms: _633  and  _636
REMARK  262  A    between atoms: _636  and  _637
REMARK                            x       y       z     vdW  Elec       q    Type
REMARK                         _______ _______ _______ _____ _____    ______ ____
ROOT
ATOM      1  O   HOH     1      51.261  28.940  24.806  0.00  0.00    +0.000 OA
ENDROOT
TORSDOF 0
REMARK  Name = ../refined-set-2016/3e93/3e93_pocket.pdb
REMARK  262 active torsions:
REMARK  status: ('A' for Active; 'I' for Inactive)
REMARK    1  A    between atoms: _1  and  _3
REMARK    2  A    between atoms: _3  and  _4
REMARK    3  A    between atoms: _3  and  _6
REMARK    4  A    between atoms: _6  and  _7
REMARK    5  A    between atoms: _17  and  _19
REMARK    6  A    between atoms: _19  and  _20
REMARK    7  A    between atoms: _19  and  _22
REMARK    8  A    between atoms: _22  and  _23
REMARK    9  A    between atoms: _26  and  _27
REMARK   10  A    between atoms: _32  and  _34
REMARK   11  A    between atoms: _34  and  _35
REMARK   12  A    between atoms: _34  and  _37
REMARK   13  A    between atoms: _40  and  _42
REMARK   14  A    between atoms: _42  and  _43
REMARK   15  A    between atoms: _45  and  _47
REMARK   16  A    between atoms: _47  and  _48
REMARK   17  A    between atoms: _47  and  _50
REMARK   18  A    between atoms: _50  and  _51
REMARK   19  A    between atoms: _53  and  _55
REMARK   20  A    between atoms: _55  and  _56
REMARK   21  A    between atoms: _55  and  _58
REMARK   22  A    between atoms: _58  and  _59
REMARK   23  A    between atoms: _61  and  _63
REMARK   24  A    between atoms: _63  and  _64
REMARK   25  A    between atoms: _63  and  _66
REMARK   26  A    between atoms: _69  and  _71
REMARK   27  A    between atoms: _71  and  _72
REMARK   28  A    between atoms: _71  and  _74
REMARK   29  A    between atoms: _76  and  _78
REMARK   30  A    between atoms: _78  and  _79
REMARK   31  A    between atoms: _82  and  _84
REMARK   32  A    between atoms: _84  and  _85
REMARK   33  A    between atoms: _88  and  _90
REMARK   34  A    between atoms: _90  and  _91
REMARK   35  A    between atoms: _90  and  _93
REMARK   36  A    between atoms: _93  and  _94
REMARK   37  A    between atoms: _94  and  _95
REMARK   38  A    between atoms: _95  and  _96
REMARK   39  A    between atoms: _105  and  _107
REMARK   40  A    between atoms: _107  and  _108
REMARK   41  A    between atoms: _107  and  _110
REMARK   42  A    between atoms: _113  and  _115
REMARK   43  A    between atoms: _115  and  _116
REMARK   44  A    between atoms: _119  and  _121
REMARK   45  A    between atoms: _121  and  _122
REMARK   46  A    between atoms: _121  and  _124
REMARK   47  A    between atoms: _127  and  _129
REMARK   48  A    between atoms: _129  and  _130
REMARK   49  A    between atoms: _129  and  _132
REMARK   50  A    between atoms: _132  and  _133
REMARK   51  A    between atoms: _133  and  _134
REMARK   52  A    between atoms: _134  and  _135
REMARK   53  A    between atoms: _135  and  _136
REMARK   54  A    between atoms: _140  and  _142
REMARK   55  A    between atoms: _142  and  _143
REMARK   56  A    between atoms: _142  and  _145
REMARK   57  A    between atoms: _145  and  _146
REMARK   58  A    between atoms: _146  and  _147
REMARK   59  A    between atoms: _147  and  _148
REMARK   60  A    between atoms: _148  and  _149
REMARK   61  A    between atoms: _153  and  _155
REMARK   62  A    between atoms: _155  and  _156
REMARK   63  A    between atoms: _155  and  _158
REMARK   64  A    between atoms: _158  and  _159
REMARK   65  A    between atoms: _162  and  _164
REMARK   66  A    between atoms: _164  and  _165
REMARK   67  A    between atoms: _164  and  _167
REMARK   68  A    between atoms: _167  and  _168
REMARK   69  A    between atoms: _168  and  _169
REMARK   70  A    between atoms: _169  and  _170
REMARK   71  A    between atoms: _179  and  _181
REMARK   72  A    between atoms: _181  and  _182
REMARK   73  A    between atoms: _181  and  _184
REMARK   74  A    between atoms: _184  and  _185
REMARK   75  A    between atoms: _185  and  _186
REMARK   76  A    between atoms: _186  and  _187
REMARK   77  A    between atoms: _196  and  _198
REMARK   78  A    between atoms: _198  and  _199
REMARK   79  A    between atoms: _198  and  _201
REMARK   80  A    between atoms: _201  and  _202
REMARK   81  A    between atoms: _202  and  _203
REMARK   82  A    between atoms: _206  and  _208
REMARK   83  A    between atoms: _208  and  _209
REMARK   84  A    between atoms: _208  and  _211
REMARK   85  A    between atoms: _211  and  _212
REMARK   86  A    between atoms: _215  and  _217
REMARK   87  A    between atoms: _217  and  _218
REMARK   88  A    between atoms: _217  and  _220
REMARK   89  A    between atoms: _220  and  _221
REMARK   90  A    between atoms: _224  and  _226
REMARK   91  A    between atoms: _226  and  _227
REMARK   92  A    between atoms: _226  and  _229
REMARK   93  A    between atoms: _229  and  _230
REMARK   94  A    between atoms: _233  and  _235
REMARK   95  A    between atoms: _235  and  _236
REMARK   96  A    between atoms: _235  and  _238
REMARK   97  A    between atoms: _238  and  _239
REMARK   98  A    between atoms: _239  and  _240
REMARK   99  A    between atoms: _242  and  _244
REMARK  100  A    between atoms: _244  and  _245
REMARK  101  A    between atoms: _244  and  _247
REMARK  102  A    between atoms: _247  and  _248
REMARK  103  A    between atoms: _253  and  _255
REMARK  104  A    between atoms: _255  and  _256
REMARK  105  A    between atoms: _255  and  _258
REMARK  106  A    between atoms: _258  and  _259
REMARK  107  A    between atoms: _264  and  _266
REMARK  108  A    between atoms: _266  and  _267
REMARK  109  A    between atoms: _266  and  _269
REMARK  110  A    between atoms: _272  and  _274
REMARK  111  A    between atoms: _274  and  _275
REMARK  112  A    between atoms: _274  and  _277
REMARK  113  A    between atoms: _277  and  _278
REMARK  114  A    between atoms: _281  and  _283
REMARK  115  A    between atoms: _283  and  _284
REMARK  116  A    between atoms: _286  and  _288
REMARK  117  A    between atoms: _288  and  _289
REMARK  118  A    between atoms: _288  and  _291
REMARK  119  A    between atoms: _291  and  _292
REMARK  120  A    between atoms: _295  and  _297
REMARK  121  A    between atoms: _297  and  _298
REMARK  122  A    between atoms: _297  and  _300
REMARK  123  A    between atoms: _300  and  _301
REMARK  124  A    between atoms: _304  and  _306
REMARK  125  A    between atoms: _306  and  _307
REMARK  126  A    between atoms: _306  and  _309
REMARK  127  A    between atoms: _309  and  _310
REMARK  128  A    between atoms: _313  and  _315
REMARK  129  A    between atoms: _315  and  _316
REMARK  130  A    between atoms: _315  and  _318
REMARK  131  A    between atoms: _318  and  _319
REMARK  132  A    between atoms: _324  and  _325
REMARK  133  A    between atoms: _327  and  _329
REMARK  134  A    between atoms: _329  and  _330
REMARK  135  A    between atoms: _329  and  _332
REMARK  136  A    between atoms: _332  and  _333
REMARK  137  A    between atoms: _336  and  _338
REMARK  138  A    between atoms: _338  and  _339
REMARK  139  A    between atoms: _338  and  _341
REMARK  140  A    between atoms: _344  and  _346
REMARK  141  A    between atoms: _346  and  _347
REMARK  142  A    between atoms: _346  and  _349
REMARK  143  A    between atoms: _349  and  _350
REMARK  144  A    between atoms: _353  and  _355
REMARK  145  A    between atoms: _355  and  _356
REMARK  146  A    between atoms: _355  and  _358
REMARK  147  A    between atoms: _358  and  _359
REMARK  148  A    between atoms: _364  and  _366
REMARK  149  A    between atoms: _366  and  _367
REMARK  150  A    between atoms: _366  and  _369
REMARK  151  A    between atoms: _369  and  _370
REMARK  152  A    between atoms: _373  and  _375
REMARK  153  A    between atoms: _375  and  _376
REMARK  154  A    between atoms: _375  and  _378
REMARK  155  A    between atoms: _378  and  _379
REMARK  156  A    between atoms: _379  and  _380
REMARK  157  A    between atoms: _382  and  _384
REMARK  158  A    between atoms: _384  and  _385
REMARK  159  A    between atoms: _387  and  _389
REMARK  160  A    between atoms: _389  and  _390
REMARK  161  A    between atoms: _393  and  _395
REMARK  162  A    between atoms: _395  and  _396
REMARK  163  A    between atoms: _395  and  _398
REMARK  164  A    between atoms: _398  and  _399
REMARK  165  A    between atoms: _402  and  _404
REMARK  166  A    between atoms: _404  and  _405
REMARK  167  A    between atoms: _404  and  _407
REMARK  168  A    between atoms: _407  and  _408
REMARK  169  A    between atoms: _413  and  _415
REMARK  170  A    between atoms: _415  and  _416
REMARK  171  A    between atoms: _418  and  _420
REMARK  172  A    between atoms: _420  and  _421
REMARK  173  A    between atoms: _420  and  _423
REMARK  174  A    between atoms: _423  and  _424
REMARK  175  A    between atoms: _427  and  _429
REMARK  176  A    between atoms: _429  and  _430
REMARK  177  A    between atoms: _429  and  _432
REMARK  178  A    between atoms: _432  and  _433
REMARK  179  A    between atoms: _438  and  _439
REMARK  180  A    between atoms: _441  and  _443
REMARK  181  A    between atoms: _443  and  _444
REMARK  182  A    between atoms: _443  and  _446
REMARK  183  A    between atoms: _446  and  _447
REMARK  184  A    between atoms: _450  and  _452
REMARK  185  A    between atoms: _452  and  _453
REMARK  186  A    between atoms: _452  and  _455
REMARK  187  A    between atoms: _455  and  _456
REMARK  188  A    between atoms: _461  and  _463
REMARK  189  A    between atoms: _463  and  _464
REMARK  190  A    between atoms: _467  and  _469
REMARK  191  A    between atoms: _469  and  _470
REMARK  192  A    between atoms: _469  and  _472
REMARK  193  A    between atoms: _472  and  _473
REMARK  194  A    between atoms: _476  and  _478
REMARK  195  A    between atoms: _478  and  _479
REMARK  196  A    between atoms: _478  and  _481
REMARK  197  A    between atoms: _481  and  _482
REMARK  198  A    between atoms: _485  and  _487
REMARK  199  A    between atoms: _487  and  _488
REMARK  200  A    between atoms: _487  and  _490
REMARK  201  A    between atoms: _490  and  _491
REMARK  202  A    between atoms: _496  and  _498
REMARK  203  A    between atoms: _498  and  _499
REMARK  204  A    between atoms: _498  and  _501
REMARK  205  A    between atoms: _501  and  _502
REMARK  206  A    between atoms: _502  and  _503
REMARK  207  A    between atoms: _503  and  _504
REMARK  208  A    between atoms: _513  and  _515
REMARK  209  A    between atoms: _515  and  _516
REMARK  210  A    between atoms: _515  and  _518
REMARK  211  A    between atoms: _518  and  _519
REMARK  212  A    between atoms: _522  and  _524
REMARK  213  A    between atoms: _524  and  _525
REMARK  214  A    between atoms: _524  and  _527
REMARK  215  A    between atoms: _527  and  _528
REMARK  216  A    between atoms: _531  and  _533
REMARK  217  A    between atoms: _533  and  _534
REMARK  218  A    between atoms: _533  and  _536
REMARK  219  A    between atoms: _536  and  _537
REMARK  220  A    between atoms: _539  and  _541
REMARK  221  A    between atoms: _541  and  _542
REMARK  222  A    between atoms: _541  and  _544
REMARK  223  A    between atoms: _544  and  _545
REMARK  224  A    between atoms: _550  and  _552
REMARK  225  A    between atoms: _552  and  _553
REMARK  226  A    between atoms: _552  and  _555
REMARK  227  A    between atoms: _555  and  _556
REMARK  228  A    between atoms: _559  and  _561
REMARK  229  A    between atoms: _561  and  _562
REMARK  230  A    between atoms: _565  and  _567
REMARK  231  A    between atoms: _567  and  _568
REMARK  232  A    between atoms: _567  and  _570
REMARK  233  A    between atoms: _570  and  _571
REMARK  234  A    between atoms: _571  and  _572
REMARK  235  A    between atoms: _572  and  _573
REMARK  236  A    between atoms: _573  and  _574
REMARK  237  A    between atoms: _578  and  _580
REMARK  238  A    between atoms: _580  and  _581
REMARK  239  A    between atoms: _580  and  _583
REMARK  240  A    between atoms: _583  and  _584
REMARK  241  A    between atoms: _587  and  _589
REMARK  242  A    between atoms: _589  and  _590
REMARK  243  A    between atoms: _589  and  _592
REMARK  244  A    between atoms: _592  and  _593
REMARK  245  A    between atoms: _596  and  _598
REMARK  246  A    between atoms: _598  and  _599
REMARK  247  A    between atoms: _598  and  _601
REMARK  248  A    between atoms: _601  and  _602
REMARK  249  A    between atoms: _605  and  _607
REMARK  250  A    between atoms: _607  and  _608
REMARK  251  A    between atoms: _607  and  _610
REMARK  252  A    between atoms: _610  and  _611
REMARK  253  A    between atoms: _617  and  _619
REMARK  254  A    between atoms: _619  and  _620
REMARK  255  A    between atoms: _622  and  _624
REMARK  256  A    between atoms: _624  and  _625
REMARK  257  A    between atoms: _624  and  _627
REMARK  258  A    between atoms: _627  and  _628
REMARK  259  A    between atoms: _631  and  _633
REMARK  260  A    between atoms: _633  and  _634
REMARK  261  A    between atoms: _633  and  _636
REMARK  262  A    between atoms: _636  and  _637
REMARK                            x       y       z     vdW  Elec       q    Type
REMARK                         _______ _______ _______ _____ _____    ______ ____
ROOT
ATOM      1  O   HOH     1      50.671  29.533  22.555  0.00  0.00    +0.000 OA
ENDROOT
TORSDOF 0
REMARK  Name = ../refined-set-2016/3e93/3e93_pocket.pdb
REMARK  262 active torsions:
REMARK  status: ('A' for Active; 'I' for Inactive)
REMARK    1  A    between atoms: _1  and  _3
REMARK    2  A    between atoms: _3  and  _4
REMARK    3  A    between atoms: _3  and  _6
REMARK    4  A    between atoms: _6  and  _7
REMARK    5  A    between atoms: _17  and  _19
REMARK    6  A    between atoms: _19  and  _20
REMARK    7  A    between atoms: _19  and  _22
REMARK    8  A    between atoms: _22  and  _23
REMARK    9  A    between atoms: _26  and  _27
REMARK   10  A    between atoms: _32  and  _34
REMARK   11  A    between atoms: _34  and  _35
REMARK   12  A    between atoms: _34  and  _37
REMARK   13  A    between atoms: _40  and  _42
REMARK   14  A    between atoms: _42  and  _43
REMARK   15  A    between atoms: _45  and  _47
REMARK   16  A    between atoms: _47  and  _48
REMARK   17  A    between atoms: _47  and  _50
REMARK   18  A    between atoms: _50  and  _51
REMARK   19  A    between atoms: _53  and  _55
REMARK   20  A    between atoms: _55  and  _56
REMARK   21  A    between atoms: _55  and  _58
REMARK   22  A    between atoms: _58  and  _59
REMARK   23  A    between atoms: _61  and  _63
REMARK   24  A    between atoms: _63  and  _64
REMARK   25  A    between atoms: _63  and  _66
REMARK   26  A    between atoms: _69  and  _71
REMARK   27  A    between atoms: _71  and  _72
REMARK   28  A    between atoms: _71  and  _74
REMARK   29  A    between atoms: _76  and  _78
REMARK   30  A    between atoms: _78  and  _79
REMARK   31  A    between atoms: _82  and  _84
REMARK   32  A    between atoms: _84  and  _85
REMARK   33  A    between atoms: _88  and  _90
REMARK   34  A    between atoms: _90  and  _91
REMARK   35  A    between atoms: _90  and  _93
REMARK   36  A    between atoms: _93  and  _94
REMARK   37  A    between atoms: _94  and  _95
REMARK   38  A    between atoms: _95  and  _96
REMARK   39  A    between atoms: _105  and  _107
REMARK   40  A    between atoms: _107  and  _108
REMARK   41  A    between atoms: _107  and  _110
REMARK   42  A    between atoms: _113  and  _115
REMARK   43  A    between atoms: _115  and  _116
REMARK   44  A    between atoms: _119  and  _121
REMARK   45  A    between atoms: _121  and  _122
REMARK   46  A    between atoms: _121  and  _124
REMARK   47  A    between atoms: _127  and  _129
REMARK   48  A    between atoms: _129  and  _130
REMARK   49  A    between atoms: _129  and  _132
REMARK   50  A    between atoms: _132  and  _133
REMARK   51  A    between atoms: _133  and  _134
REMARK   52  A    between atoms: _134  and  _135
REMARK   53  A    between atoms: _135  and  _136
REMARK   54  A    between atoms: _140  and  _142
REMARK   55  A    between atoms: _142  and  _143
REMARK   56  A    between atoms: _142  and  _145
REMARK   57  A    between atoms: _145  and  _146
REMARK   58  A    between atoms: _146  and  _147
REMARK   59  A    between atoms: _147  and  _148
REMARK   60  A    between atoms: _148  and  _149
REMARK   61  A    between atoms: _153  and  _155
REMARK   62  A    between atoms: _155  and  _156
REMARK   63  A    between atoms: _155  and  _158
REMARK   64  A    between atoms: _158  and  _159
REMARK   65  A    between atoms: _162  and  _164
REMARK   66  A    between atoms: _164  and  _165
REMARK   67  A    between atoms: _164  and  _167
REMARK   68  A    between atoms: _167  and  _168
REMARK   69  A    between atoms: _168  and  _169
REMARK   70  A    between atoms: _169  and  _170
REMARK   71  A    between atoms: _179  and  _181
REMARK   72  A    between atoms: _181  and  _182
REMARK   73  A    between atoms: _181  and  _184
REMARK   74  A    between atoms: _184  and  _185
REMARK   75  A    between atoms: _185  and  _186
REMARK   76  A    between atoms: _186  and  _187
REMARK   77  A    between atoms: _196  and  _198
REMARK   78  A    between atoms: _198  and  _199
REMARK   79  A    between atoms: _198  and  _201
REMARK   80  A    between atoms: _201  and  _202
REMARK   81  A    between atoms: _202  and  _203
REMARK   82  A    between atoms: _206  and  _208
REMARK   83  A    between atoms: _208  and  _209
REMARK   84  A    between atoms: _208  and  _211
REMARK   85  A    between atoms: _211  and  _212
REMARK   86  A    between atoms: _215  and  _217
REMARK   87  A    between atoms: _217  and  _218
REMARK   88  A    between atoms: _217  and  _220
REMARK   89  A    between atoms: _220  and  _221
REMARK   90  A    between atoms: _224  and  _226
REMARK   91  A    between atoms: _226  and  _227
REMARK   92  A    between atoms: _226  and  _229
REMARK   93  A    between atoms: _229  and  _230
REMARK   94  A    between atoms: _233  and  _235
REMARK   95  A    between atoms: _235  and  _236
REMARK   96  A    between atoms: _235  and  _238
REMARK   97  A    between atoms: _238  and  _239
REMARK   98  A    between atoms: _239  and  _240
REMARK   99  A    between atoms: _242  and  _244
REMARK  100  A    between atoms: _244  and  _245
REMARK  101  A    between atoms: _244  and  _247
REMARK  102  A    between atoms: _247  and  _248
REMARK  103  A    between atoms: _253  and  _255
REMARK  104  A    between atoms: _255  and  _256
REMARK  105  A    between atoms: _255  and  _258
REMARK  106  A    between atoms: _258  and  _259
REMARK  107  A    between atoms: _264  and  _266
REMARK  108  A    between atoms: _266  and  _267
REMARK  109  A    between atoms: _266  and  _269
REMARK  110  A    between atoms: _272  and  _274
REMARK  111  A    between atoms: _274  and  _275
REMARK  112  A    between atoms: _274  and  _277
REMARK  113  A    between atoms: _277  and  _278
REMARK  114  A    between atoms: _281  and  _283
REMARK  115  A    between atoms: _283  and  _284
REMARK  116  A    between atoms: _286  and  _288
REMARK  117  A    between atoms: _288  and  _289
REMARK  118  A    between atoms: _288  and  _291
REMARK  119  A    between atoms: _291  and  _292
REMARK  120  A    between atoms: _295  and  _297
REMARK  121  A    between atoms: _297  and  _298
REMARK  122  A    between atoms: _297  and  _300
REMARK  123  A    between atoms: _300  and  _301
REMARK  124  A    between atoms: _304  and  _306
REMARK  125  A    between atoms: _306  and  _307
REMARK  126  A    between atoms: _306  and  _309
REMARK  127  A    between atoms: _309  and  _310
REMARK  128  A    between atoms: _313  and  _315
REMARK  129  A    between atoms: _315  and  _316
REMARK  130  A    between atoms: _315  and  _318
REMARK  131  A    between atoms: _318  and  _319
REMARK  132  A    between atoms: _324  and  _325
REMARK  133  A    between atoms: _327  and  _329
REMARK  134  A    between atoms: _329  and  _330
REMARK  135  A    between atoms: _329  and  _332
REMARK  136  A    between atoms: _332  and  _333
REMARK  137  A    between atoms: _336  and  _338
REMARK  138  A    between atoms: _338  and  _339
REMARK  139  A    between atoms: _338  and  _341
REMARK  140  A    between atoms: _344  and  _346
REMARK  141  A    between atoms: _346  and  _347
REMARK  142  A    between atoms: _346  and  _349
REMARK  143  A    between atoms: _349  and  _350
REMARK  144  A    between atoms: _353  and  _355
REMARK  145  A    between atoms: _355  and  _356
REMARK  146  A    between atoms: _355  and  _358
REMARK  147  A    between atoms: _358  and  _359
REMARK  148  A    between atoms: _364  and  _366
REMARK  149  A    between atoms: _366  and  _367
REMARK  150  A    between atoms: _366  and  _369
REMARK  151  A    between atoms: _369  and  _370
REMARK  152  A    between atoms: _373  and  _375
REMARK  153  A    between atoms: _375  and  _376
REMARK  154  A    between atoms: _375  and  _378
REMARK  155  A    between atoms: _378  and  _379
REMARK  156  A    between atoms: _379  and  _380
REMARK  157  A    between atoms: _382  and  _384
REMARK  158  A    between atoms: _384  and  _385
REMARK  159  A    between atoms: _387  and  _389
REMARK  160  A    between atoms: _389  and  _390
REMARK  161  A    between atoms: _393  and  _395
REMARK  162  A    between atoms: _395  and  _396
REMARK  163  A    between atoms: _395  and  _398
REMARK  164  A    between atoms: _398  and  _399
REMARK  165  A    between atoms: _402  and  _404
REMARK  166  A    between atoms: _404  and  _405
REMARK  167  A    between atoms: _404  and  _407
REMARK  168  A    between atoms: _407  and  _408
REMARK  169  A    between atoms: _413  and  _415
REMARK  170  A    between atoms: _415  and  _416
REMARK  171  A    between atoms: _418  and  _420
REMARK  172  A    between atoms: _420  and  _421
REMARK  173  A    between atoms: _420  and  _423
REMARK  174  A    between atoms: _423  and  _424
REMARK  175  A    between atoms: _427  and  _429
REMARK  176  A    between atoms: _429  and  _430
REMARK  177  A    between atoms: _429  and  _432
REMARK  178  A    between atoms: _432  and  _433
REMARK  179  A    between atoms: _438  and  _439
REMARK  180  A    between atoms: _441  and  _443
REMARK  181  A    between atoms: _443  and  _444
REMARK  182  A    between atoms: _443  and  _446
REMARK  183  A    between atoms: _446  and  _447
REMARK  184  A    between atoms: _450  and  _452
REMARK  185  A    between atoms: _452  and  _453
REMARK  186  A    between atoms: _452  and  _455
REMARK  187  A    between atoms: _455  and  _456
REMARK  188  A    between atoms: _461  and  _463
REMARK  189  A    between atoms: _463  and  _464
REMARK  190  A    between atoms: _467  and  _469
REMARK  191  A    between atoms: _469  and  _470
REMARK  192  A    between atoms: _469  and  _472
REMARK  193  A    between atoms: _472  and  _473
REMARK  194  A    between atoms: _476  and  _478
REMARK  195  A    between atoms: _478  and  _479
REMARK  196  A    between atoms: _478  and  _481
REMARK  197  A    between atoms: _481  and  _482
REMARK  198  A    between atoms: _485  and  _487
REMARK  199  A    between atoms: _487  and  _488
REMARK  200  A    between atoms: _487  and  _490
REMARK  201  A    between atoms: _490  and  _491
REMARK  202  A    between atoms: _496  and  _498
REMARK  203  A    between atoms: _498  and  _499
REMARK  204  A    between atoms: _498  and  _501
REMARK  205  A    between atoms: _501  and  _502
REMARK  206  A    between atoms: _502  and  _503
REMARK  207  A    between atoms: _503  and  _504
REMARK  208  A    between atoms: _513  and  _515
REMARK  209  A    between atoms: _515  and  _516
REMARK  210  A    between atoms: _515  and  _518
REMARK  211  A    between atoms: _518  and  _519
REMARK  212  A    between atoms: _522  and  _524
REMARK  213  A    between atoms: _524  and  _525
REMARK  214  A    between atoms: _524  and  _527
REMARK  215  A    between atoms: _527  and  _528
REMARK  216  A    between atoms: _531  and  _533
REMARK  217  A    between atoms: _533  and  _534
REMARK  218  A    between atoms: _533  and  _536
REMARK  219  A    between atoms: _536  and  _537
REMARK  220  A    between atoms: _539  and  _541
REMARK  221  A    between atoms: _541  and  _542
REMARK  222  A    between atoms: _541  and  _544
REMARK  223  A    between atoms: _544  and  _545
REMARK  224  A    between atoms: _550  and  _552
REMARK  225  A    between atoms: _552  and  _553
REMARK  226  A    between atoms: _552  and  _555
REMARK  227  A    between atoms: _555  and  _556
REMARK  228  A    between atoms: _559  and  _561
REMARK  229  A    between atoms: _561  and  _562
REMARK  230  A    between atoms: _565  and  _567
REMARK  231  A    between atoms: _567  and  _568
REMARK  232  A    between atoms: _567  and  _570
REMARK  233  A    between atoms: _570  and  _571
REMARK  234  A    between atoms: _571  and  _572
REMARK  235  A    between atoms: _572  and  _573
REMARK  236  A    between atoms: _573  and  _574
REMARK  237  A    between atoms: _578  and  _580
REMARK  238  A    between atoms: _580  and  _581
REMARK  239  A    between atoms: _580  and  _583
REMARK  240  A    between atoms: _583  and  _584
REMARK  241  A    between atoms: _587  and  _589
REMARK  242  A    between atoms: _589  and  _590
REMARK  243  A    between atoms: _589  and  _592
REMARK  244  A    between atoms: _592  and  _593
REMARK  245  A    between atoms: _596  and  _598
REMARK  246  A    between atoms: _598  and  _599
REMARK  247  A    between atoms: _598  and  _601
REMARK  248  A    between atoms: _601  and  _602
REMARK  249  A    between atoms: _605  and  _607
REMARK  250  A    between atoms: _607  and  _608
REMARK  251  A    between atoms: _607  and  _610
REMARK  252  A    between atoms: _610  and  _611
REMARK  253  A    between atoms: _617  and  _619
REMARK  254  A    between atoms: _619  and  _620
REMARK  255  A    between atoms: _622  and  _624
REMARK  256  A    between atoms: _624  and  _625
REMARK  257  A    between atoms: _624  and  _627
REMARK  258  A    between atoms: _627  and  _628
REMARK  259  A    between atoms: _631  and  _633
REMARK  260  A    between atoms: _633  and  _634
REMARK  261  A    between atoms: _633  and  _636
REMARK  262  A    between atoms: _636  and  _637
REMARK                            x       y       z     vdW  Elec       q    Type
REMARK                         _______ _______ _______ _____ _____    ______ ____
ROOT
ATOM      1  O   HOH     1      51.503  29.047  32.244  0.00  0.00    +0.000 OA
ENDROOT
TORSDOF 0
REMARK  Name = ../refined-set-2016/3e93/3e93_pocket.pdb
REMARK  262 active torsions:
REMARK  status: ('A' for Active; 'I' for Inactive)
REMARK    1  A    between atoms: _1  and  _3
REMARK    2  A    between atoms: _3  and  _4
REMARK    3  A    between atoms: _3  and  _6
REMARK    4  A    between atoms: _6  and  _7
REMARK    5  A    between atoms: _17  and  _19
REMARK    6  A    between atoms: _19  and  _20
REMARK    7  A    between atoms: _19  and  _22
REMARK    8  A    between atoms: _22  and  _23
REMARK    9  A    between atoms: _26  and  _27
REMARK   10  A    between atoms: _32  and  _34
REMARK   11  A    between atoms: _34  and  _35
REMARK   12  A    between atoms: _34  and  _37
REMARK   13  A    between atoms: _40  and  _42
REMARK   14  A    between atoms: _42  and  _43
REMARK   15  A    between atoms: _45  and  _47
REMARK   16  A    between atoms: _47  and  _48
REMARK   17  A    between atoms: _47  and  _50
REMARK   18  A    between atoms: _50  and  _51
REMARK   19  A    between atoms: _53  and  _55
REMARK   20  A    between atoms: _55  and  _56
REMARK   21  A    between atoms: _55  and  _58
REMARK   22  A    between atoms: _58  and  _59
REMARK   23  A    between atoms: _61  and  _63
REMARK   24  A    between atoms: _63  and  _64
REMARK   25  A    between atoms: _63  and  _66
REMARK   26  A    between atoms: _69  and  _71
REMARK   27  A    between atoms: _71  and  _72
REMARK   28  A    between atoms: _71  and  _74
REMARK   29  A    between atoms: _76  and  _78
REMARK   30  A    between atoms: _78  and  _79
REMARK   31  A    between atoms: _82  and  _84
REMARK   32  A    between atoms: _84  and  _85
REMARK   33  A    between atoms: _88  and  _90
REMARK   34  A    between atoms: _90  and  _91
REMARK   35  A    between atoms: _90  and  _93
REMARK   36  A    between atoms: _93  and  _94
REMARK   37  A    between atoms: _94  and  _95
REMARK   38  A    between atoms: _95  and  _96
REMARK   39  A    between atoms: _105  and  _107
REMARK   40  A    between atoms: _107  and  _108
REMARK   41  A    between atoms: _107  and  _110
REMARK   42  A    between atoms: _113  and  _115
REMARK   43  A    between atoms: _115  and  _116
REMARK   44  A    between atoms: _119  and  _121
REMARK   45  A    between atoms: _121  and  _122
REMARK   46  A    between atoms: _121  and  _124
REMARK   47  A    between atoms: _127  and  _129
REMARK   48  A    between atoms: _129  and  _130
REMARK   49  A    between atoms: _129  and  _132
REMARK   50  A    between atoms: _132  and  _133
REMARK   51  A    between atoms: _133  and  _134
REMARK   52  A    between atoms: _134  and  _135
REMARK   53  A    between atoms: _135  and  _136
REMARK   54  A    between atoms: _140  and  _142
REMARK   55  A    between atoms: _142  and  _143
REMARK   56  A    between atoms: _142  and  _145
REMARK   57  A    between atoms: _145  and  _146
REMARK   58  A    between atoms: _146  and  _147
REMARK   59  A    between atoms: _147  and  _148
REMARK   60  A    between atoms: _148  and  _149
REMARK   61  A    between atoms: _153  and  _155
REMARK   62  A    between atoms: _155  and  _156
REMARK   63  A    between atoms: _155  and  _158
REMARK   64  A    between atoms: _158  and  _159
REMARK   65  A    between atoms: _162  and  _164
REMARK   66  A    between atoms: _164  and  _165
REMARK   67  A    between atoms: _164  and  _167
REMARK   68  A    between atoms: _167  and  _168
REMARK   69  A    between atoms: _168  and  _169
REMARK   70  A    between atoms: _169  and  _170
REMARK   71  A    between atoms: _179  and  _181
REMARK   72  A    between atoms: _181  and  _182
REMARK   73  A    between atoms: _181  and  _184
REMARK   74  A    between atoms: _184  and  _185
REMARK   75  A    between atoms: _185  and  _186
REMARK   76  A    between atoms: _186  and  _187
REMARK   77  A    between atoms: _196  and  _198
REMARK   78  A    between atoms: _198  and  _199
REMARK   79  A    between atoms: _198  and  _201
REMARK   80  A    between atoms: _201  and  _202
REMARK   81  A    between atoms: _202  and  _203
REMARK   82  A    between atoms: _206  and  _208
REMARK   83  A    between atoms: _208  and  _209
REMARK   84  A    between atoms: _208  and  _211
REMARK   85  A    between atoms: _211  and  _212
REMARK   86  A    between atoms: _215  and  _217
REMARK   87  A    between atoms: _217  and  _218
REMARK   88  A    between atoms: _217  and  _220
REMARK   89  A    between atoms: _220  and  _221
REMARK   90  A    between atoms: _224  and  _226
REMARK   91  A    between atoms: _226  and  _227
REMARK   92  A    between atoms: _226  and  _229
REMARK   93  A    between atoms: _229  and  _230
REMARK   94  A    between atoms: _233  and  _235
REMARK   95  A    between atoms: _235  and  _236
REMARK   96  A    between atoms: _235  and  _238
REMARK   97  A    between atoms: _238  and  _239
REMARK   98  A    between atoms: _239  and  _240
REMARK   99  A    between atoms: _242  and  _244
REMARK  100  A    between atoms: _244  and  _245
REMARK  101  A    between atoms: _244  and  _247
REMARK  102  A    between atoms: _247  and  _248
REMARK  103  A    between atoms: _253  and  _255
REMARK  104  A    between atoms: _255  and  _256
REMARK  105  A    between atoms: _255  and  _258
REMARK  106  A    between atoms: _258  and  _259
REMARK  107  A    between atoms: _264  and  _266
REMARK  108  A    between atoms: _266  and  _267
REMARK  109  A    between atoms: _266  and  _269
REMARK  110  A    between atoms: _272  and  _274
REMARK  111  A    between atoms: _274  and  _275
REMARK  112  A    between atoms: _274  and  _277
REMARK  113  A    between atoms: _277  and  _278
REMARK  114  A    between atoms: _281  and  _283
REMARK  115  A    between atoms: _283  and  _284
REMARK  116  A    between atoms: _286  and  _288
REMARK  117  A    between atoms: _288  and  _289
REMARK  118  A    between atoms: _288  and  _291
REMARK  119  A    between atoms: _291  and  _292
REMARK  120  A    between atoms: _295  and  _297
REMARK  121  A    between atoms: _297  and  _298
REMARK  122  A    between atoms: _297  and  _300
REMARK  123  A    between atoms: _300  and  _301
REMARK  124  A    between atoms: _304  and  _306
REMARK  125  A    between atoms: _306  and  _307
REMARK  126  A    between atoms: _306  and  _309
REMARK  127  A    between atoms: _309  and  _310
REMARK  128  A    between atoms: _313  and  _315
REMARK  129  A    between atoms: _315  and  _316
REMARK  130  A    between atoms: _315  and  _318
REMARK  131  A    between atoms: _318  and  _319
REMARK  132  A    between atoms: _324  and  _325
REMARK  133  A    between atoms: _327  and  _329
REMARK  134  A    between atoms: _329  and  _330
REMARK  135  A    between atoms: _329  and  _332
REMARK  136  A    between atoms: _332  and  _333
REMARK  137  A    between atoms: _336  and  _338
REMARK  138  A    between atoms: _338  and  _339
REMARK  139  A    between atoms: _338  and  _341
REMARK  140  A    between atoms: _344  and  _346
REMARK  141  A    between atoms: _346  and  _347
REMARK  142  A    between atoms: _346  and  _349
REMARK  143  A    between atoms: _349  and  _350
REMARK  144  A    between atoms: _353  and  _355
REMARK  145  A    between atoms: _355  and  _356
REMARK  146  A    between atoms: _355  and  _358
REMARK  147  A    between atoms: _358  and  _359
REMARK  148  A    between atoms: _364  and  _366
REMARK  149  A    between atoms: _366  and  _367
REMARK  150  A    between atoms: _366  and  _369
REMARK  151  A    between atoms: _369  and  _370
REMARK  152  A    between atoms: _373  and  _375
REMARK  153  A    between atoms: _375  and  _376
REMARK  154  A    between atoms: _375  and  _378
REMARK  155  A    between atoms: _378  and  _379
REMARK  156  A    between atoms: _379  and  _380
REMARK  157  A    between atoms: _382  and  _384
REMARK  158  A    between atoms: _384  and  _385
REMARK  159  A    between atoms: _387  and  _389
REMARK  160  A    between atoms: _389  and  _390
REMARK  161  A    between atoms: _393  and  _395
REMARK  162  A    between atoms: _395  and  _396
REMARK  163  A    between atoms: _395  and  _398
REMARK  164  A    between atoms: _398  and  _399
REMARK  165  A    between atoms: _402  and  _404
REMARK  166  A    between atoms: _404  and  _405
REMARK  167  A    between atoms: _404  and  _407
REMARK  168  A    between atoms: _407  and  _408
REMARK  169  A    between atoms: _413  and  _415
REMARK  170  A    between atoms: _415  and  _416
REMARK  171  A    between atoms: _418  and  _420
REMARK  172  A    between atoms: _420  and  _421
REMARK  173  A    between atoms: _420  and  _423
REMARK  174  A    between atoms: _423  and  _424
REMARK  175  A    between atoms: _427  and  _429
REMARK  176  A    between atoms: _429  and  _430
REMARK  177  A    between atoms: _429  and  _432
REMARK  178  A    between atoms: _432  and  _433
REMARK  179  A    between atoms: _438  and  _439
REMARK  180  A    between atoms: _441  and  _443
REMARK  181  A    between atoms: _443  and  _444
REMARK  182  A    between atoms: _443  and  _446
REMARK  183  A    between atoms: _446  and  _447
REMARK  184  A    between atoms: _450  and  _452
REMARK  185  A    between atoms: _452  and  _453
REMARK  186  A    between atoms: _452  and  _455
REMARK  187  A    between atoms: _455  and  _456
REMARK  188  A    between atoms: _461  and  _463
REMARK  189  A    between atoms: _463  and  _464
REMARK  190  A    between atoms: _467  and  _469
REMARK  191  A    between atoms: _469  and  _470
REMARK  192  A    between atoms: _469  and  _472
REMARK  193  A    between atoms: _472  and  _473
REMARK  194  A    between atoms: _476  and  _478
REMARK  195  A    between atoms: _478  and  _479
REMARK  196  A    between atoms: _478  and  _481
REMARK  197  A    between atoms: _481  and  _482
REMARK  198  A    between atoms: _485  and  _487
REMARK  199  A    between atoms: _487  and  _488
REMARK  200  A    between atoms: _487  and  _490
REMARK  201  A    between atoms: _490  and  _491
REMARK  202  A    between atoms: _496  and  _498
REMARK  203  A    between atoms: _498  and  _499
REMARK  204  A    between atoms: _498  and  _501
REMARK  205  A    between atoms: _501  and  _502
REMARK  206  A    between atoms: _502  and  _503
REMARK  207  A    between atoms: _503  and  _504
REMARK  208  A    between atoms: _513  and  _515
REMARK  209  A    between atoms: _515  and  _516
REMARK  210  A    between atoms: _515  and  _518
REMARK  211  A    between atoms: _518  and  _519
REMARK  212  A    between atoms: _522  and  _524
REMARK  213  A    between atoms: _524  and  _525
REMARK  214  A    between atoms: _524  and  _527
REMARK  215  A    between atoms: _527  and  _528
REMARK  216  A    between atoms: _531  and  _533
REMARK  217  A    between atoms: _533  and  _534
REMARK  218  A    between atoms: _533  and  _536
REMARK  219  A    between atoms: _536  and  _537
REMARK  220  A    between atoms: _539  and  _541
REMARK  221  A    between atoms: _541  and  _542
REMARK  222  A    between atoms: _541  and  _544
REMARK  223  A    between atoms: _544  and  _545
REMARK  224  A    between atoms: _550  and  _552
REMARK  225  A    between atoms: _552  and  _553
REMARK  226  A    between atoms: _552  and  _555
REMARK  227  A    between atoms: _555  and  _556
REMARK  228  A    between atoms: _559  and  _561
REMARK  229  A    between atoms: _561  and  _562
REMARK  230  A    between atoms: _565  and  _567
REMARK  231  A    between atoms: _567  and  _568
REMARK  232  A    between atoms: _567  and  _570
REMARK  233  A    between atoms: _570  and  _571
REMARK  234  A    between atoms: _571  and  _572
REMARK  235  A    between atoms: _572  and  _573
REMARK  236  A    between atoms: _573  and  _574
REMARK  237  A    between atoms: _578  and  _580
REMARK  238  A    between atoms: _580  and  _581
REMARK  239  A    between atoms: _580  and  _583
REMARK  240  A    between atoms: _583  and  _584
REMARK  241  A    between atoms: _587  and  _589
REMARK  242  A    between atoms: _589  and  _590
REMARK  243  A    between atoms: _589  and  _592
REMARK  244  A    between atoms: _592  and  _593
REMARK  245  A    between atoms: _596  and  _598
REMARK  246  A    between atoms: _598  and  _599
REMARK  247  A    between atoms: _598  and  _601
REMARK  248  A    between atoms: _601  and  _602
REMARK  249  A    between atoms: _605  and  _607
REMARK  250  A    between atoms: _607  and  _608
REMARK  251  A    between atoms: _607  and  _610
REMARK  252  A    between atoms: _610  and  _611
REMARK  253  A    between atoms: _617  and  _619
REMARK  254  A    between atoms: _619  and  _620
REMARK  255  A    between atoms: _622  and  _624
REMARK  256  A    between atoms: _624  and  _625
REMARK  257  A    between atoms: _624  and  _627
REMARK  258  A    between atoms: _627  and  _628
REMARK  259  A    between atoms: _631  and  _633
REMARK  260  A    between atoms: _633  and  _634
REMARK  261  A    between atoms: _633  and  _636
REMARK  262  A    between atoms: _636  and  _637
REMARK                            x       y       z     vdW  Elec       q    Type
REMARK                         _______ _______ _______ _____ _____    ______ ____
ROOT
ATOM      1  O   HOH     1      49.890  28.965  28.347  0.00  0.00    +0.000 OA
ENDROOT
TORSDOF 0
REMARK  Name = ../refined-set-2016/3e93/3e93_pocket.pdb
REMARK  262 active torsions:
REMARK  status: ('A' for Active; 'I' for Inactive)
REMARK    1  A    between atoms: _1  and  _3
REMARK    2  A    between atoms: _3  and  _4
REMARK    3  A    between atoms: _3  and  _6
REMARK    4  A    between atoms: _6  and  _7
REMARK    5  A    between atoms: _17  and  _19
REMARK    6  A    between atoms: _19  and  _20
REMARK    7  A    between atoms: _19  and  _22
REMARK    8  A    between atoms: _22  and  _23
REMARK    9  A    between atoms: _26  and  _27
REMARK   10  A    between atoms: _32  and  _34
REMARK   11  A    between atoms: _34  and  _35
REMARK   12  A    between atoms: _34  and  _37
REMARK   13  A    between atoms: _40  and  _42
REMARK   14  A    between atoms: _42  and  _43
REMARK   15  A    between atoms: _45  and  _47
REMARK   16  A    between atoms: _47  and  _48
REMARK   17  A    between atoms: _47  and  _50
REMARK   18  A    between atoms: _50  and  _51
REMARK   19  A    between atoms: _53  and  _55
REMARK   20  A    between atoms: _55  and  _56
REMARK   21  A    between atoms: _55  and  _58
REMARK   22  A    between atoms: _58  and  _59
REMARK   23  A    between atoms: _61  and  _63
REMARK   24  A    between atoms: _63  and  _64
REMARK   25  A    between atoms: _63  and  _66
REMARK   26  A    between atoms: _69  and  _71
REMARK   27  A    between atoms: _71  and  _72
REMARK   28  A    between atoms: _71  and  _74
REMARK   29  A    between atoms: _76  and  _78
REMARK   30  A    between atoms: _78  and  _79
REMARK   31  A    between atoms: _82  and  _84
REMARK   32  A    between atoms: _84  and  _85
REMARK   33  A    between atoms: _88  and  _90
REMARK   34  A    between atoms: _90  and  _91
REMARK   35  A    between atoms: _90  and  _93
REMARK   36  A    between atoms: _93  and  _94
REMARK   37  A    between atoms: _94  and  _95
REMARK   38  A    between atoms: _95  and  _96
REMARK   39  A    between atoms: _105  and  _107
REMARK   40  A    between atoms: _107  and  _108
REMARK   41  A    between atoms: _107  and  _110
REMARK   42  A    between atoms: _113  and  _115
REMARK   43  A    between atoms: _115  and  _116
REMARK   44  A    between atoms: _119  and  _121
REMARK   45  A    between atoms: _121  and  _122
REMARK   46  A    between atoms: _121  and  _124
REMARK   47  A    between atoms: _127  and  _129
REMARK   48  A    between atoms: _129  and  _130
REMARK   49  A    between atoms: _129  and  _132
REMARK   50  A    between atoms: _132  and  _133
REMARK   51  A    between atoms: _133  and  _134
REMARK   52  A    between atoms: _134  and  _135
REMARK   53  A    between atoms: _135  and  _136
REMARK   54  A    between atoms: _140  and  _142
REMARK   55  A    between atoms: _142  and  _143
REMARK   56  A    between atoms: _142  and  _145
REMARK   57  A    between atoms: _145  and  _146
REMARK   58  A    between atoms: _146  and  _147
REMARK   59  A    between atoms: _147  and  _148
REMARK   60  A    between atoms: _148  and  _149
REMARK   61  A    between atoms: _153  and  _155
REMARK   62  A    between atoms: _155  and  _156
REMARK   63  A    between atoms: _155  and  _158
REMARK   64  A    between atoms: _158  and  _159
REMARK   65  A    between atoms: _162  and  _164
REMARK   66  A    between atoms: _164  and  _165
REMARK   67  A    between atoms: _164  and  _167
REMARK   68  A    between atoms: _167  and  _168
REMARK   69  A    between atoms: _168  and  _169
REMARK   70  A    between atoms: _169  and  _170
REMARK   71  A    between atoms: _179  and  _181
REMARK   72  A    between atoms: _181  and  _182
REMARK   73  A    between atoms: _181  and  _184
REMARK   74  A    between atoms: _184  and  _185
REMARK   75  A    between atoms: _185  and  _186
REMARK   76  A    between atoms: _186  and  _187
REMARK   77  A    between atoms: _196  and  _198
REMARK   78  A    between atoms: _198  and  _199
REMARK   79  A    between atoms: _198  and  _201
REMARK   80  A    between atoms: _201  and  _202
REMARK   81  A    between atoms: _202  and  _203
REMARK   82  A    between atoms: _206  and  _208
REMARK   83  A    between atoms: _208  and  _209
REMARK   84  A    between atoms: _208  and  _211
REMARK   85  A    between atoms: _211  and  _212
REMARK   86  A    between atoms: _215  and  _217
REMARK   87  A    between atoms: _217  and  _218
REMARK   88  A    between atoms: _217  and  _220
REMARK   89  A    between atoms: _220  and  _221
REMARK   90  A    between atoms: _224  and  _226
REMARK   91  A    between atoms: _226  and  _227
REMARK   92  A    between atoms: _226  and  _229
REMARK   93  A    between atoms: _229  and  _230
REMARK   94  A    between atoms: _233  and  _235
REMARK   95  A    between atoms: _235  and  _236
REMARK   96  A    between atoms: _235  and  _238
REMARK   97  A    between atoms: _238  and  _239
REMARK   98  A    between atoms: _239  and  _240
REMARK   99  A    between atoms: _242  and  _244
REMARK  100  A    between atoms: _244  and  _245
REMARK  101  A    between atoms: _244  and  _247
REMARK  102  A    between atoms: _247  and  _248
REMARK  103  A    between atoms: _253  and  _255
REMARK  104  A    between atoms: _255  and  _256
REMARK  105  A    between atoms: _255  and  _258
REMARK  106  A    between atoms: _258  and  _259
REMARK  107  A    between atoms: _264  and  _266
REMARK  108  A    between atoms: _266  and  _267
REMARK  109  A    between atoms: _266  and  _269
REMARK  110  A    between atoms: _272  and  _274
REMARK  111  A    between atoms: _274  and  _275
REMARK  112  A    between atoms: _274  and  _277
REMARK  113  A    between atoms: _277  and  _278
REMARK  114  A    between atoms: _281  and  _283
REMARK  115  A    between atoms: _283  and  _284
REMARK  116  A    between atoms: _286  and  _288
REMARK  117  A    between atoms: _288  and  _289
REMARK  118  A    between atoms: _288  and  _291
REMARK  119  A    between atoms: _291  and  _292
REMARK  120  A    between atoms: _295  and  _297
REMARK  121  A    between atoms: _297  and  _298
REMARK  122  A    between atoms: _297  and  _300
REMARK  123  A    between atoms: _300  and  _301
REMARK  124  A    between atoms: _304  and  _306
REMARK  125  A    between atoms: _306  and  _307
REMARK  126  A    between atoms: _306  and  _309
REMARK  127  A    between atoms: _309  and  _310
REMARK  128  A    between atoms: _313  and  _315
REMARK  129  A    between atoms: _315  and  _316
REMARK  130  A    between atoms: _315  and  _318
REMARK  131  A    between atoms: _318  and  _319
REMARK  132  A    between atoms: _324  and  _325
REMARK  133  A    between atoms: _327  and  _329
REMARK  134  A    between atoms: _329  and  _330
REMARK  135  A    between atoms: _329  and  _332
REMARK  136  A    between atoms: _332  and  _333
REMARK  137  A    between atoms: _336  and  _338
REMARK  138  A    between atoms: _338  and  _339
REMARK  139  A    between atoms: _338  and  _341
REMARK  140  A    between atoms: _344  and  _346
REMARK  141  A    between atoms: _346  and  _347
REMARK  142  A    between atoms: _346  and  _349
REMARK  143  A    between atoms: _349  and  _350
REMARK  144  A    between atoms: _353  and  _355
REMARK  145  A    between atoms: _355  and  _356
REMARK  146  A    between atoms: _355  and  _358
REMARK  147  A    between atoms: _358  and  _359
REMARK  148  A    between atoms: _364  and  _366
REMARK  149  A    between atoms: _366  and  _367
REMARK  150  A    between atoms: _366  and  _369
REMARK  151  A    between atoms: _369  and  _370
REMARK  152  A    between atoms: _373  and  _375
REMARK  153  A    between atoms: _375  and  _376
REMARK  154  A    between atoms: _375  and  _378
REMARK  155  A    between atoms: _378  and  _379
REMARK  156  A    between atoms: _379  and  _380
REMARK  157  A    between atoms: _382  and  _384
REMARK  158  A    between atoms: _384  and  _385
REMARK  159  A    between atoms: _387  and  _389
REMARK  160  A    between atoms: _389  and  _390
REMARK  161  A    between atoms: _393  and  _395
REMARK  162  A    between atoms: _395  and  _396
REMARK  163  A    between atoms: _395  and  _398
REMARK  164  A    between atoms: _398  and  _399
REMARK  165  A    between atoms: _402  and  _404
REMARK  166  A    between atoms: _404  and  _405
REMARK  167  A    between atoms: _404  and  _407
REMARK  168  A    between atoms: _407  and  _408
REMARK  169  A    between atoms: _413  and  _415
REMARK  170  A    between atoms: _415  and  _416
REMARK  171  A    between atoms: _418  and  _420
REMARK  172  A    between atoms: _420  and  _421
REMARK  173  A    between atoms: _420  and  _423
REMARK  174  A    between atoms: _423  and  _424
REMARK  175  A    between atoms: _427  and  _429
REMARK  176  A    between atoms: _429  and  _430
REMARK  177  A    between atoms: _429  and  _432
REMARK  178  A    between atoms: _432  and  _433
REMARK  179  A    between atoms: _438  and  _439
REMARK  180  A    between atoms: _441  and  _443
REMARK  181  A    between atoms: _443  and  _444
REMARK  182  A    between atoms: _443  and  _446
REMARK  183  A    between atoms: _446  and  _447
REMARK  184  A    between atoms: _450  and  _452
REMARK  185  A    between atoms: _452  and  _453
REMARK  186  A    between atoms: _452  and  _455
REMARK  187  A    between atoms: _455  and  _456
REMARK  188  A    between atoms: _461  and  _463
REMARK  189  A    between atoms: _463  and  _464
REMARK  190  A    between atoms: _467  and  _469
REMARK  191  A    between atoms: _469  and  _470
REMARK  192  A    between atoms: _469  and  _472
REMARK  193  A    between atoms: _472  and  _473
REMARK  194  A    between atoms: _476  and  _478
REMARK  195  A    between atoms: _478  and  _479
REMARK  196  A    between atoms: _478  and  _481
REMARK  197  A    between atoms: _481  and  _482
REMARK  198  A    between atoms: _485  and  _487
REMARK  199  A    between atoms: _487  and  _488
REMARK  200  A    between atoms: _487  and  _490
REMARK  201  A    between atoms: _490  and  _491
REMARK  202  A    between atoms: _496  and  _498
REMARK  203  A    between atoms: _498  and  _499
REMARK  204  A    between atoms: _498  and  _501
REMARK  205  A    between atoms: _501  and  _502
REMARK  206  A    between atoms: _502  and  _503
REMARK  207  A    between atoms: _503  and  _504
REMARK  208  A    between atoms: _513  and  _515
REMARK  209  A    between atoms: _515  and  _516
REMARK  210  A    between atoms: _515  and  _518
REMARK  211  A    between atoms: _518  and  _519
REMARK  212  A    between atoms: _522  and  _524
REMARK  213  A    between atoms: _524  and  _525
REMARK  214  A    between atoms: _524  and  _527
REMARK  215  A    between atoms: _527  and  _528
REMARK  216  A    between atoms: _531  and  _533
REMARK  217  A    between atoms: _533  and  _534
REMARK  218  A    between atoms: _533  and  _536
REMARK  219  A    between atoms: _536  and  _537
REMARK  220  A    between atoms: _539  and  _541
REMARK  221  A    between atoms: _541  and  _542
REMARK  222  A    between atoms: _541  and  _544
REMARK  223  A    between atoms: _544  and  _545
REMARK  224  A    between atoms: _550  and  _552
REMARK  225  A    between atoms: _552  and  _553
REMARK  226  A    between atoms: _552  and  _555
REMARK  227  A    between atoms: _555  and  _556
REMARK  228  A    between atoms: _559  and  _561
REMARK  229  A    between atoms: _561  and  _562
REMARK  230  A    between atoms: _565  and  _567
REMARK  231  A    between atoms: _567  and  _568
REMARK  232  A    between atoms: _567  and  _570
REMARK  233  A    between atoms: _570  and  _571
REMARK  234  A    between atoms: _571  and  _572
REMARK  235  A    between atoms: _572  and  _573
REMARK  236  A    between atoms: _573  and  _574
REMARK  237  A    between atoms: _578  and  _580
REMARK  238  A    between atoms: _580  and  _581
REMARK  239  A    between atoms: _580  and  _583
REMARK  240  A    between atoms: _583  and  _584
REMARK  241  A    between atoms: _587  and  _589
REMARK  242  A    between atoms: _589  and  _590
REMARK  243  A    between atoms: _589  and  _592
REMARK  244  A    between atoms: _592  and  _593
REMARK  245  A    between atoms: _596  and  _598
REMARK  246  A    between atoms: _598  and  _599
REMARK  247  A    between atoms: _598  and  _601
REMARK  248  A    between atoms: _601  and  _602
REMARK  249  A    between atoms: _605  and  _607
REMARK  250  A    between atoms: _607  and  _608
REMARK  251  A    between atoms: _607  and  _610
REMARK  252  A    between atoms: _610  and  _611
REMARK  253  A    between atoms: _617  and  _619
REMARK  254  A    between atoms: _619  and  _620
REMARK  255  A    between atoms: _622  and  _624
REMARK  256  A    between atoms: _624  and  _625
REMARK  257  A    between atoms: _624  and  _627
REMARK  258  A    between atoms: _627  and  _628
REMARK  259  A    between atoms: _631  and  _633
REMARK  260  A    between atoms: _633  and  _634
REMARK  261  A    between atoms: _633  and  _636
REMARK  262  A    between atoms: _636  and  _637
REMARK                            x       y       z     vdW  Elec       q    Type
REMARK                         _______ _______ _______ _____ _____    ______ ____
ROOT
ATOM      1  O   HOH     1      48.485  29.465  30.597  0.00  0.00    +0.000 OA
ENDROOT
TORSDOF 0
