REMARK  Name = ../refined-set-2016/3v51/3v51_pocket.pdb
REMARK  269 active torsions:
REMARK  status: ('A' for Active; 'I' for Inactive)
REMARK    1  A    between atoms: _1  and  _3
REMARK    2  A    between atoms: _3  and  _4
REMARK    3  A    between atoms: _3  and  _6
REMARK    4  A    between atoms: _6  and  _7
REMARK    5  A    between atoms: _7  and  _8
REMARK    6  A    between atoms: _8  and  _9
REMARK    7  A    between atoms: _18  and  _20
REMARK    8  A    between atoms: _20  and  _21
REMARK    9  A    between atoms: _20  and  _23
REMARK   10  A    between atoms: _26  and  _28
REMARK   11  A    between atoms: _28  and  _29
REMARK   12  A    between atoms: _28  and  _31
REMARK   13  A    between atoms: _31  and  _32
REMARK   14  A    between atoms: _35  and  _37
REMARK   15  A    between atoms: _37  and  _38
REMARK   16  A    between atoms: _40  and  _42
REMARK   17  A    between atoms: _42  and  _43
REMARK   18  A    between atoms: _42  and  _45
REMARK   19  A    between atoms: _45  and  _46
REMARK   20  A    between atoms: _46  and  _47
REMARK   21  A    between atoms: _47  and  _48
REMARK   22  A    between atoms: _48  and  _49
REMARK   23  A    between atoms: _53  and  _55
REMARK   24  A    between atoms: _55  and  _56
REMARK   25  A    between atoms: _58  and  _60
REMARK   26  A    between atoms: _60  and  _61
REMARK   27  A    between atoms: _60  and  _63
REMARK   28  A    between atoms: _63  and  _64
REMARK   29  A    between atoms: _68  and  _69
REMARK   30  A    between atoms: _71  and  _73
REMARK   31  A    between atoms: _73  and  _74
REMARK   32  A    between atoms: _73  and  _76
REMARK   33  A    between atoms: _76  and  _77
REMARK   34  A    between atoms: _77  and  _78
REMARK   35  A    between atoms: _81  and  _83
REMARK   36  A    between atoms: _83  and  _84
REMARK   37  A    between atoms: _83  and  _86
REMARK   38  A    between atoms: _89  and  _91
REMARK   39  A    between atoms: _91  and  _92
REMARK   40  A    between atoms: _91  and  _94
REMARK   41  A    between atoms: _94  and  _95
REMARK   42  A    between atoms: _98  and  _100
REMARK   43  A    between atoms: _100  and  _101
REMARK   44  A    between atoms: _100  and  _103
REMARK   45  A    between atoms: _103  and  _104
REMARK   46  A    between atoms: _107  and  _109
REMARK   47  A    between atoms: _109  and  _110
REMARK   48  A    between atoms: _109  and  _112
REMARK   49  A    between atoms: _114  and  _116
REMARK   50  A    between atoms: _116  and  _117
REMARK   51  A    between atoms: _120  and  _122
REMARK   52  A    between atoms: _122  and  _123
REMARK   53  A    between atoms: _122  and  _125
REMARK   54  A    between atoms: _128  and  _130
REMARK   55  A    between atoms: _130  and  _131
REMARK   56  A    between atoms: _130  and  _133
REMARK   57  A    between atoms: _133  and  _134
REMARK   58  A    between atoms: _134  and  _135
REMARK   59  A    between atoms: _135  and  _136
REMARK   60  A    between atoms: _136  and  _137
REMARK   61  A    between atoms: _141  and  _143
REMARK   62  A    between atoms: _143  and  _144
REMARK   63  A    between atoms: _143  and  _146
REMARK   64  A    between atoms: _149  and  _151
REMARK   65  A    between atoms: _151  and  _152
REMARK   66  A    between atoms: _151  and  _154
REMARK   67  A    between atoms: _154  and  _155
REMARK   68  A    between atoms: _158  and  _160
REMARK   69  A    between atoms: _160  and  _161
REMARK   70  A    between atoms: _160  and  _163
REMARK   71  A    between atoms: _163  and  _164
REMARK   72  A    between atoms: _167  and  _169
REMARK   73  A    between atoms: _169  and  _170
REMARK   74  A    between atoms: _169  and  _172
REMARK   75  A    between atoms: _172  and  _173
REMARK   76  A    between atoms: _175  and  _177
REMARK   77  A    between atoms: _177  and  _178
REMARK   78  A    between atoms: _177  and  _180
REMARK   79  A    between atoms: _180  and  _181
REMARK   80  A    between atoms: _184  and  _186
REMARK   81  A    between atoms: _186  and  _187
REMARK   82  A    between atoms: _186  and  _189
REMARK   83  A    between atoms: _189  and  _190
REMARK   84  A    between atoms: _193  and  _195
REMARK   85  A    between atoms: _195  and  _196
REMARK   86  A    between atoms: _195  and  _198
REMARK   87  A    between atoms: _198  and  _199
REMARK   88  A    between atoms: _199  and  _200
REMARK   89  A    between atoms: _203  and  _205
REMARK   90  A    between atoms: _205  and  _206
REMARK   91  A    between atoms: _205  and  _208
REMARK   92  A    between atoms: _211  and  _213
REMARK   93  A    between atoms: _213  and  _214
REMARK   94  A    between atoms: _213  and  _216
REMARK   95  A    between atoms: _216  and  _217
REMARK   96  A    between atoms: _217  and  _218
REMARK   97  A    between atoms: _223  and  _225
REMARK   98  A    between atoms: _225  and  _226
REMARK   99  A    between atoms: _225  and  _228
REMARK  100  A    between atoms: _228  and  _229
REMARK  101  A    between atoms: _232  and  _234
REMARK  102  A    between atoms: _234  and  _235
REMARK  103  A    between atoms: _234  and  _237
REMARK  104  A    between atoms: _237  and  _238
REMARK  105  A    between atoms: _238  and  _239
REMARK  106  A    between atoms: _239  and  _240
REMARK  107  A    between atoms: _240  and  _241
REMARK  108  A    between atoms: _245  and  _247
REMARK  109  A    between atoms: _247  and  _248
REMARK  110  A    between atoms: _247  and  _250
REMARK  111  A    between atoms: _250  and  _251
REMARK  112  A    between atoms: _251  and  _252
REMARK  113  A    between atoms: _254  and  _256
REMARK  114  A    between atoms: _256  and  _257
REMARK  115  A    between atoms: _256  and  _259
REMARK  116  A    between atoms: _259  and  _260
REMARK  117  A    between atoms: _260  and  _261
REMARK  118  A    between atoms: _261  and  _262
REMARK  119  A    between atoms: _262  and  _263
REMARK  120  A    between atoms: _267  and  _269
REMARK  121  A    between atoms: _269  and  _270
REMARK  122  A    between atoms: _269  and  _272
REMARK  123  A    between atoms: _272  and  _273
REMARK  124  A    between atoms: _276  and  _278
REMARK  125  A    between atoms: _278  and  _279
REMARK  126  A    between atoms: _278  and  _281
REMARK  127  A    between atoms: _281  and  _282
REMARK  128  A    between atoms: _287  and  _288
REMARK  129  A    between atoms: _290  and  _292
REMARK  130  A    between atoms: _292  and  _293
REMARK  131  A    between atoms: _292  and  _295
REMARK  132  A    between atoms: _295  and  _296
REMARK  133  A    between atoms: _296  and  _297
REMARK  134  A    between atoms: _300  and  _302
REMARK  135  A    between atoms: _302  and  _303
REMARK  136  A    between atoms: _302  and  _305
REMARK  137  A    between atoms: _305  and  _306
REMARK  138  A    between atoms: _312  and  _314
REMARK  139  A    between atoms: _314  and  _315
REMARK  140  A    between atoms: _314  and  _317
REMARK  141  A    between atoms: _317  and  _318
REMARK  142  A    between atoms: _324  and  _326
REMARK  143  A    between atoms: _326  and  _327
REMARK  144  A    between atoms: _326  and  _329
REMARK  145  A    between atoms: _329  and  _330
REMARK  146  A    between atoms: _336  and  _338
REMARK  147  A    between atoms: _338  and  _339
REMARK  148  A    between atoms: _338  and  _341
REMARK  149  A    between atoms: _341  and  _342
REMARK  150  A    between atoms: _347  and  _348
REMARK  151  A    between atoms: _350  and  _352
REMARK  152  A    between atoms: _352  and  _353
REMARK  153  A    between atoms: _352  and  _355
REMARK  154  A    between atoms: _355  and  _356
REMARK  155  A    between atoms: _359  and  _361
REMARK  156  A    between atoms: _361  and  _362
REMARK  157  A    between atoms: _361  and  _364
REMARK  158  A    between atoms: _367  and  _369
REMARK  159  A    between atoms: _369  and  _370
REMARK  160  A    between atoms: _372  and  _374
REMARK  161  A    between atoms: _374  and  _375
REMARK  162  A    between atoms: _374  and  _377
REMARK  163  A    between atoms: _377  and  _378
REMARK  164  A    between atoms: _378  and  _379
REMARK  165  A    between atoms: _382  and  _384
REMARK  166  A    between atoms: _384  and  _385
REMARK  167  A    between atoms: _384  and  _387
REMARK  168  A    between atoms: _390  and  _392
REMARK  169  A    between atoms: _392  and  _393
REMARK  170  A    between atoms: _392  and  _395
REMARK  171  A    between atoms: _395  and  _396
REMARK  172  A    between atoms: _401  and  _402
REMARK  173  A    between atoms: _404  and  _406
REMARK  174  A    between atoms: _406  and  _407
REMARK  175  A    between atoms: _406  and  _409
REMARK  176  A    between atoms: _409  and  _410
REMARK  177  A    between atoms: _413  and  _415
REMARK  178  A    between atoms: _415  and  _416
REMARK  179  A    between atoms: _418  and  _420
REMARK  180  A    between atoms: _420  and  _421
REMARK  181  A    between atoms: _423  and  _425
REMARK  182  A    between atoms: _425  and  _426
REMARK  183  A    between atoms: _425  and  _428
REMARK  184  A    between atoms: _428  and  _429
REMARK  185  A    between atoms: _429  and  _430
REMARK  186  A    between atoms: _433  and  _435
REMARK  187  A    between atoms: _435  and  _436
REMARK  188  A    between atoms: _435  and  _438
REMARK  189  A    between atoms: _438  and  _439
REMARK  190  A    between atoms: _442  and  _444
REMARK  191  A    between atoms: _444  and  _445
REMARK  192  A    between atoms: _444  and  _447
REMARK  193  A    between atoms: _450  and  _452
REMARK  194  A    between atoms: _452  and  _453
REMARK  195  A    between atoms: _452  and  _455
REMARK  196  A    between atoms: _455  and  _456
REMARK  197  A    between atoms: _456  and  _457
REMARK  198  A    between atoms: _460  and  _462
REMARK  199  A    between atoms: _462  and  _463
REMARK  200  A    between atoms: _462  and  _465
REMARK  201  A    between atoms: _465  and  _466
REMARK  202  A    between atoms: _471  and  _473
REMARK  203  A    between atoms: _473  and  _474
REMARK  204  A    between atoms: _473  and  _476
REMARK  205  A    between atoms: _476  and  _477
REMARK  206  A    between atoms: _480  and  _482
REMARK  207  A    between atoms: _482  and  _483
REMARK  208  A    between atoms: _482  and  _485
REMARK  209  A    between atoms: _485  and  _486
REMARK  210  A    between atoms: _489  and  _491
REMARK  211  A    between atoms: _491  and  _492
REMARK  212  A    between atoms: _491  and  _494
REMARK  213  A    between atoms: _494  and  _495
REMARK  214  A    between atoms: _498  and  _500
REMARK  215  A    between atoms: _500  and  _501
REMARK  216  A    between atoms: _500  and  _503
REMARK  217  A    between atoms: _503  and  _504
REMARK  218  A    between atoms: _504  and  _505
REMARK  219  A    between atoms: _508  and  _510
REMARK  220  A    between atoms: _510  and  _511
REMARK  221  A    between atoms: _510  and  _513
REMARK  222  A    between atoms: _513  and  _514
REMARK  223  A    between atoms: _514  and  _515
REMARK  224  A    between atoms: _515  and  _516
REMARK  225  A    between atoms: _525  and  _527
REMARK  226  A    between atoms: _527  and  _528
REMARK  227  A    between atoms: _527  and  _530
REMARK  228  A    between atoms: _530  and  _531
REMARK  229  A    between atoms: _534  and  _536
REMARK  230  A    between atoms: _536  and  _537
REMARK  231  A    between atoms: _536  and  _539
REMARK  232  A    between atoms: _539  and  _540
REMARK  233  A    between atoms: _543  and  _545
REMARK  234  A    between atoms: _545  and  _546
REMARK  235  A    between atoms: _545  and  _548
REMARK  236  A    between atoms: _548  and  _549
REMARK  237  A    between atoms: _552  and  _554
REMARK  238  A    between atoms: _554  and  _555
REMARK  239  A    between atoms: _554  and  _557
REMARK  240  A    between atoms: _557  and  _558
REMARK  241  A    between atoms: _564  and  _566
REMARK  242  A    between atoms: _566  and  _567
REMARK  243  A    between atoms: _569  and  _571
REMARK  244  A    between atoms: _571  and  _572
REMARK  245  A    between atoms: _571  and  _574
REMARK  246  A    between atoms: _574  and  _575
REMARK  247  A    between atoms: _578  and  _580
REMARK  248  A    between atoms: _580  and  _581
REMARK  249  A    between atoms: _580  and  _583
REMARK  250  A    between atoms: _583  and  _584
REMARK  251  A    between atoms: _586  and  _588
REMARK  252  A    between atoms: _588  and  _589
REMARK  253  A    between atoms: _588  and  _591
REMARK  254  A    between atoms: _591  and  _592
REMARK  255  A    between atoms: _595  and  _597
REMARK  256  A    between atoms: _597  and  _598
REMARK  257  A    between atoms: _597  and  _600
REMARK  258  A    between atoms: _600  and  _601
REMARK  259  A    between atoms: _606  and  _608
REMARK  260  A    between atoms: _608  and  _609
REMARK  261  A    between atoms: _608  and  _611
REMARK  262  A    between atoms: _611  and  _612
REMARK  263  A    between atoms: _618  and  _620
REMARK  264  A    between atoms: _620  and  _621
REMARK  265  A    between atoms: _620  and  _623
REMARK  266  A    between atoms: _623  and  _624
REMARK  267  A    between atoms: _624  and  _625
REMARK  268  A    between atoms: _625  and  _626
REMARK  269  A    between atoms: _626  and  _627
REMARK                            x       y       z     vdW  Elec       q    Type
REMARK                         _______ _______ _______ _____ _____    ______ ____
ROOT
ATOM      1  C   LEU A   3      21.059  17.573  65.312  0.00  0.00    +0.241 C 
ATOM      2  N   GLY A   4      20.352  18.613  65.745  0.00  0.00    -0.295 N 
ATOM      3  H   GLY A   4      19.913  18.566  66.687  0.00  0.00    +0.150 HD
ATOM      4  O   LEU A   3      21.586  17.525  64.197  0.00  0.00    -0.273 OA
ENDROOT
BRANCH   2   5
ATOM      5  CA  GLY A   4      20.171  19.821  64.941  0.00  0.00    +0.176 C 
BRANCH   5   6
ATOM      6  C   GLY A   4      18.940  20.645  65.284  0.00  0.00    +0.243 C 
ATOM      7  O   GLY A   4      18.266  20.416  66.279  0.00  0.00    -0.273 OA
ATOM      8  N   LYS A   5      18.661  21.623  64.438  0.00  0.00    -0.297 N 
ATOM      9  H   LYS A   5      19.269  21.748  63.603  0.00  0.00    +0.150 HD
BRANCH   8  10
ATOM     10  CA  LYS A   5      17.541  22.531  64.625  0.00  0.00    +0.149 C 
BRANCH  10  11
ATOM     11  C   LYS A   5      16.604  22.251  63.476  0.00  0.00    +0.241 C 
ATOM     12  N   GLY A   6      15.334  22.043  63.780  0.00  0.00    -0.295 N 
ATOM     13  H   GLY A   6      15.044  22.022  64.778  0.00  0.00    +0.150 HD
ATOM     14  O   LYS A   5      17.029  22.172  62.331  0.00  0.00    -0.273 OA
BRANCH  12  15
ATOM     15  CA  GLY A   6      14.343  21.844  62.747  0.00  0.00    +0.176 C 
BRANCH  15  16
ATOM     16  C   GLY A   6      13.190  22.776  62.998  0.00  0.00    +0.243 C 
ATOM     17  O   GLY A   6      13.243  23.604  63.907  0.00  0.00    -0.273 OA
ATOM     18  N   SER A   7      12.140  22.629  62.202  0.00  0.00    -0.296 N 
ATOM     19  H   SER A   7      12.189  21.958  61.409  0.00  0.00    +0.150 HD
BRANCH  18  20
ATOM     20  CA  SER A   7      10.933  23.384  62.419  0.00  0.00    +0.166 C 
BRANCH  20  21
ATOM     21  CB  SER A   7      10.431  23.143  63.827  0.00  0.00    +0.229 C 
ATOM     22  OG  SER A   7      10.393  22.000  64.299  0.00  0.00    -0.286 OA
ENDBRANCH  20  21
BRANCH  20  23
ATOM     23  C   SER A   7       9.861  22.993  61.413  0.00  0.00    +0.165 C 
BRANCH  23  24
ATOM     24  O   SER A   7      10.325  23.158  60.089  0.00  0.00    -0.380 OA
ATOM     25  H   SER A   7       9.610  22.897  59.455  0.00  0.00    +0.211 HD
ENDBRANCH  23  24
ENDBRANCH  20  23
ENDBRANCH  18  20
ENDBRANCH  15  16
ENDBRANCH  12  15
ENDBRANCH  10  11
BRANCH  10  26
ATOM     26  CB  LYS A   5      18.029  23.980  64.593  0.00  0.00    +0.029 C 
BRANCH  26  27
ATOM     27  CG  LYS A   5      16.944  25.033  64.788  0.00  0.00    +0.000 C 
BRANCH  27  28
ATOM     28  CD  LYS A   5      17.555  26.391  65.115  0.00  0.00    -0.024 C 
BRANCH  28  29
ATOM     29  CE  LYS A   5      16.609  27.544  64.804  0.00  0.00    -0.086 C 
BRANCH  29  30
ATOM     30  NZ  LYS A   5      16.452  27.784  63.338  0.00  0.00    +0.380 N 
ATOM     31  HZ1 LYS A   5      15.798  28.579  63.186  0.00  0.00    -0.089 HD
ATOM     32  HZ2 LYS A   5      17.378  28.012  62.924  0.00  0.00    -0.089 HD
ATOM     33  HZ3 LYS A   5      16.070  26.928  62.887  0.00  0.00    -0.089 HD
ENDBRANCH  29  30
ENDBRANCH  28  29
ENDBRANCH  27  28
ENDBRANCH  26  27
ENDBRANCH  10  26
ENDBRANCH   8  10
ENDBRANCH   5   6
ENDBRANCH   2   5
BRANCH   1  34
ATOM     34  CA  LEU A   3      21.201  16.408  66.271  0.00  0.00    +0.149 C 
BRANCH  34  37
ATOM     35  C   VAL A   2      22.378  17.253  68.236  0.00  0.00    +0.241 C 
ATOM     36  O   VAL A   2      23.466  17.200  67.662  0.00  0.00    -0.273 OA
ATOM     37  N   LEU A   3      21.238  16.881  67.659  0.00  0.00    -0.297 N 
ATOM     38  H   LEU A   3      20.354  16.927  68.204  0.00  0.00    +0.150 HD
BRANCH  35  39
ATOM     39  CA  VAL A   2      22.281  17.772  69.671  0.00  0.00    +0.148 C 
BRANCH  39  42
ATOM     40  C   ARG A   1      22.932  15.897  71.092  0.00  0.00    +0.238 C 
ATOM     41  O   ARG A   1      21.832  15.353  70.956  0.00  0.00    -0.274 OA
ATOM     42  N   VAL A   2      23.223  17.069  70.539  0.00  0.00    -0.297 N 
ATOM     43  H   VAL A   2      24.150  17.500  70.730  0.00  0.00    +0.150 HD
BRANCH  40  44
ATOM     44  CA  ARG A   1      24.023  15.229  71.931  0.00  0.00    +0.145 C 
BRANCH  44  45
ATOM     45  N   ARG A   1      23.448  14.097  72.660  0.00  0.00    -0.238 NA
ATOM     46  H   ARG A   1      22.500  13.770  72.386  0.00  0.00    +0.142 HD
ENDBRANCH  44  45
BRANCH  44  47
ATOM     47  CB  ARG A   1      25.171  14.760  71.025  0.00  0.00    +0.030 C 
BRANCH  47  48
ATOM     48  CG  ARG A   1      24.774  13.723  69.987  0.00  0.00    +0.045 C 
BRANCH  48  49
ATOM     49  CD  ARG A   1      25.969  13.026  69.340  0.00  0.00    +0.174 C 
BRANCH  49  50
ATOM     50  NE  ARG A   1      25.523  12.004  68.391  0.00  0.00    -0.265 N 
ATOM     51  HE  ARG A   1      25.496  11.020  68.726  0.00  0.00    +0.259 HD
ATOM     52  CZ  ARG A   1      25.149  12.234  67.131  0.00  0.00    +0.342 C 
ATOM     53  NH2 ARG A   1      25.182  13.460  66.615  0.00  0.00    -0.292 N 
ATOM     54 HH21 ARG A   1      25.504  14.260  67.196  0.00  0.00    +0.255 HD
ATOM     55 HH22 ARG A   1      24.886  13.618  65.631  0.00  0.00    +0.255 HD
ATOM     56  NH1 ARG A   1      24.740  11.223  66.371  0.00  0.00    -0.292 N 
ATOM     57 HH11 ARG A   1      24.713  10.259  66.759  0.00  0.00    +0.255 HD
ATOM     58 HH12 ARG A   1      24.447  11.396  65.388  0.00  0.00    +0.255 HD
ENDBRANCH  49  50
ENDBRANCH  48  49
ENDBRANCH  47  48
ENDBRANCH  44  47
ENDBRANCH  40  44
ENDBRANCH  39  42
BRANCH  39  59
ATOM     59  CB  VAL A   2      22.517  19.295  69.659  0.00  0.00    +0.027 C 
ATOM     60  CG2 VAL A   2      22.492  19.835  71.074  0.00  0.00    +0.002 C 
ATOM     61  CG1 VAL A   2      21.449  19.998  68.820  0.00  0.00    +0.002 C 
ENDBRANCH  39  59
ENDBRANCH  35  39
ENDBRANCH  34  37
BRANCH  34  62
ATOM     62  CB  LEU A   3      20.072  15.421  66.054  0.00  0.00    +0.029 C 
BRANCH  62  63
ATOM     63  CG  LEU A   3      20.228  14.065  66.732  0.00  0.00    +0.002 C 
ATOM     64  CD2 LEU A   3      18.905  13.309  66.732  0.00  0.00    +0.000 C 
ATOM     65  CD1 LEU A   3      21.306  13.230  66.056  0.00  0.00    +0.000 C 
ENDBRANCH  62  63
ENDBRANCH  34  62
ENDBRANCH   1  34
TORSDOF 28
REMARK  Name = ../refined-set-2016/3v51/3v51_pocket.pdb
REMARK  269 active torsions:
REMARK  status: ('A' for Active; 'I' for Inactive)
REMARK    1  A    between atoms: _1  and  _3
REMARK    2  A    between atoms: _3  and  _4
REMARK    3  A    between atoms: _3  and  _6
REMARK    4  A    between atoms: _6  and  _7
REMARK    5  A    between atoms: _7  and  _8
REMARK    6  A    between atoms: _8  and  _9
REMARK    7  A    between atoms: _18  and  _20
REMARK    8  A    between atoms: _20  and  _21
REMARK    9  A    between atoms: _20  and  _23
REMARK   10  A    between atoms: _26  and  _28
REMARK   11  A    between atoms: _28  and  _29
REMARK   12  A    between atoms: _28  and  _31
REMARK   13  A    between atoms: _31  and  _32
REMARK   14  A    between atoms: _35  and  _37
REMARK   15  A    between atoms: _37  and  _38
REMARK   16  A    between atoms: _40  and  _42
REMARK   17  A    between atoms: _42  and  _43
REMARK   18  A    between atoms: _42  and  _45
REMARK   19  A    between atoms: _45  and  _46
REMARK   20  A    between atoms: _46  and  _47
REMARK   21  A    between atoms: _47  and  _48
REMARK   22  A    between atoms: _48  and  _49
REMARK   23  A    between atoms: _53  and  _55
REMARK   24  A    between atoms: _55  and  _56
REMARK   25  A    between atoms: _58  and  _60
REMARK   26  A    between atoms: _60  and  _61
REMARK   27  A    between atoms: _60  and  _63
REMARK   28  A    between atoms: _63  and  _64
REMARK   29  A    between atoms: _68  and  _69
REMARK   30  A    between atoms: _71  and  _73
REMARK   31  A    between atoms: _73  and  _74
REMARK   32  A    between atoms: _73  and  _76
REMARK   33  A    between atoms: _76  and  _77
REMARK   34  A    between atoms: _77  and  _78
REMARK   35  A    between atoms: _81  and  _83
REMARK   36  A    between atoms: _83  and  _84
REMARK   37  A    between atoms: _83  and  _86
REMARK   38  A    between atoms: _89  and  _91
REMARK   39  A    between atoms: _91  and  _92
REMARK   40  A    between atoms: _91  and  _94
REMARK   41  A    between atoms: _94  and  _95
REMARK   42  A    between atoms: _98  and  _100
REMARK   43  A    between atoms: _100  and  _101
REMARK   44  A    between atoms: _100  and  _103
REMARK   45  A    between atoms: _103  and  _104
REMARK   46  A    between atoms: _107  and  _109
REMARK   47  A    between atoms: _109  and  _110
REMARK   48  A    between atoms: _109  and  _112
REMARK   49  A    between atoms: _114  and  _116
REMARK   50  A    between atoms: _116  and  _117
REMARK   51  A    between atoms: _120  and  _122
REMARK   52  A    between atoms: _122  and  _123
REMARK   53  A    between atoms: _122  and  _125
REMARK   54  A    between atoms: _128  and  _130
REMARK   55  A    between atoms: _130  and  _131
REMARK   56  A    between atoms: _130  and  _133
REMARK   57  A    between atoms: _133  and  _134
REMARK   58  A    between atoms: _134  and  _135
REMARK   59  A    between atoms: _135  and  _136
REMARK   60  A    between atoms: _136  and  _137
REMARK   61  A    between atoms: _141  and  _143
REMARK   62  A    between atoms: _143  and  _144
REMARK   63  A    between atoms: _143  and  _146
REMARK   64  A    between atoms: _149  and  _151
REMARK   65  A    between atoms: _151  and  _152
REMARK   66  A    between atoms: _151  and  _154
REMARK   67  A    between atoms: _154  and  _155
REMARK   68  A    between atoms: _158  and  _160
REMARK   69  A    between atoms: _160  and  _161
REMARK   70  A    between atoms: _160  and  _163
REMARK   71  A    between atoms: _163  and  _164
REMARK   72  A    between atoms: _167  and  _169
REMARK   73  A    between atoms: _169  and  _170
REMARK   74  A    between atoms: _169  and  _172
REMARK   75  A    between atoms: _172  and  _173
REMARK   76  A    between atoms: _175  and  _177
REMARK   77  A    between atoms: _177  and  _178
REMARK   78  A    between atoms: _177  and  _180
REMARK   79  A    between atoms: _180  and  _181
REMARK   80  A    between atoms: _184  and  _186
REMARK   81  A    between atoms: _186  and  _187
REMARK   82  A    between atoms: _186  and  _189
REMARK   83  A    between atoms: _189  and  _190
REMARK   84  A    between atoms: _193  and  _195
REMARK   85  A    between atoms: _195  and  _196
REMARK   86  A    between atoms: _195  and  _198
REMARK   87  A    between atoms: _198  and  _199
REMARK   88  A    between atoms: _199  and  _200
REMARK   89  A    between atoms: _203  and  _205
REMARK   90  A    between atoms: _205  and  _206
REMARK   91  A    between atoms: _205  and  _208
REMARK   92  A    between atoms: _211  and  _213
REMARK   93  A    between atoms: _213  and  _214
REMARK   94  A    between atoms: _213  and  _216
REMARK   95  A    between atoms: _216  and  _217
REMARK   96  A    between atoms: _217  and  _218
REMARK   97  A    between atoms: _223  and  _225
REMARK   98  A    between atoms: _225  and  _226
REMARK   99  A    between atoms: _225  and  _228
REMARK  100  A    between atoms: _228  and  _229
REMARK  101  A    between atoms: _232  and  _234
REMARK  102  A    between atoms: _234  and  _235
REMARK  103  A    between atoms: _234  and  _237
REMARK  104  A    between atoms: _237  and  _238
REMARK  105  A    between atoms: _238  and  _239
REMARK  106  A    between atoms: _239  and  _240
REMARK  107  A    between atoms: _240  and  _241
REMARK  108  A    between atoms: _245  and  _247
REMARK  109  A    between atoms: _247  and  _248
REMARK  110  A    between atoms: _247  and  _250
REMARK  111  A    between atoms: _250  and  _251
REMARK  112  A    between atoms: _251  and  _252
REMARK  113  A    between atoms: _254  and  _256
REMARK  114  A    between atoms: _256  and  _257
REMARK  115  A    between atoms: _256  and  _259
REMARK  116  A    between atoms: _259  and  _260
REMARK  117  A    between atoms: _260  and  _261
REMARK  118  A    between atoms: _261  and  _262
REMARK  119  A    between atoms: _262  and  _263
REMARK  120  A    between atoms: _267  and  _269
REMARK  121  A    between atoms: _269  and  _270
REMARK  122  A    between atoms: _269  and  _272
REMARK  123  A    between atoms: _272  and  _273
REMARK  124  A    between atoms: _276  and  _278
REMARK  125  A    between atoms: _278  and  _279
REMARK  126  A    between atoms: _278  and  _281
REMARK  127  A    between atoms: _281  and  _282
REMARK  128  A    between atoms: _287  and  _288
REMARK  129  A    between atoms: _290  and  _292
REMARK  130  A    between atoms: _292  and  _293
REMARK  131  A    between atoms: _292  and  _295
REMARK  132  A    between atoms: _295  and  _296
REMARK  133  A    between atoms: _296  and  _297
REMARK  134  A    between atoms: _300  and  _302
REMARK  135  A    between atoms: _302  and  _303
REMARK  136  A    between atoms: _302  and  _305
REMARK  137  A    between atoms: _305  and  _306
REMARK  138  A    between atoms: _312  and  _314
REMARK  139  A    between atoms: _314  and  _315
REMARK  140  A    between atoms: _314  and  _317
REMARK  141  A    between atoms: _317  and  _318
REMARK  142  A    between atoms: _324  and  _326
REMARK  143  A    between atoms: _326  and  _327
REMARK  144  A    between atoms: _326  and  _329
REMARK  145  A    between atoms: _329  and  _330
REMARK  146  A    between atoms: _336  and  _338
REMARK  147  A    between atoms: _338  and  _339
REMARK  148  A    between atoms: _338  and  _341
REMARK  149  A    between atoms: _341  and  _342
REMARK  150  A    between atoms: _347  and  _348
REMARK  151  A    between atoms: _350  and  _352
REMARK  152  A    between atoms: _352  and  _353
REMARK  153  A    between atoms: _352  and  _355
REMARK  154  A    between atoms: _355  and  _356
REMARK  155  A    between atoms: _359  and  _361
REMARK  156  A    between atoms: _361  and  _362
REMARK  157  A    between atoms: _361  and  _364
REMARK  158  A    between atoms: _367  and  _369
REMARK  159  A    between atoms: _369  and  _370
REMARK  160  A    between atoms: _372  and  _374
REMARK  161  A    between atoms: _374  and  _375
REMARK  162  A    between atoms: _374  and  _377
REMARK  163  A    between atoms: _377  and  _378
REMARK  164  A    between atoms: _378  and  _379
REMARK  165  A    between atoms: _382  and  _384
REMARK  166  A    between atoms: _384  and  _385
REMARK  167  A    between atoms: _384  and  _387
REMARK  168  A    between atoms: _390  and  _392
REMARK  169  A    between atoms: _392  and  _393
REMARK  170  A    between atoms: _392  and  _395
REMARK  171  A    between atoms: _395  and  _396
REMARK  172  A    between atoms: _401  and  _402
REMARK  173  A    between atoms: _404  and  _406
REMARK  174  A    between atoms: _406  and  _407
REMARK  175  A    between atoms: _406  and  _409
REMARK  176  A    between atoms: _409  and  _410
REMARK  177  A    between atoms: _413  and  _415
REMARK  178  A    between atoms: _415  and  _416
REMARK  179  A    between atoms: _418  and  _420
REMARK  180  A    between atoms: _420  and  _421
REMARK  181  A    between atoms: _423  and  _425
REMARK  182  A    between atoms: _425  and  _426
REMARK  183  A    between atoms: _425  and  _428
REMARK  184  A    between atoms: _428  and  _429
REMARK  185  A    between atoms: _429  and  _430
REMARK  186  A    between atoms: _433  and  _435
REMARK  187  A    between atoms: _435  and  _436
REMARK  188  A    between atoms: _435  and  _438
REMARK  189  A    between atoms: _438  and  _439
REMARK  190  A    between atoms: _442  and  _444
REMARK  191  A    between atoms: _444  and  _445
REMARK  192  A    between atoms: _444  and  _447
REMARK  193  A    between atoms: _450  and  _452
REMARK  194  A    between atoms: _452  and  _453
REMARK  195  A    between atoms: _452  and  _455
REMARK  196  A    between atoms: _455  and  _456
REMARK  197  A    between atoms: _456  and  _457
REMARK  198  A    between atoms: _460  and  _462
REMARK  199  A    between atoms: _462  and  _463
REMARK  200  A    between atoms: _462  and  _465
REMARK  201  A    between atoms: _465  and  _466
REMARK  202  A    between atoms: _471  and  _473
REMARK  203  A    between atoms: _473  and  _474
REMARK  204  A    between atoms: _473  and  _476
REMARK  205  A    between atoms: _476  and  _477
REMARK  206  A    between atoms: _480  and  _482
REMARK  207  A    between atoms: _482  and  _483
REMARK  208  A    between atoms: _482  and  _485
REMARK  209  A    between atoms: _485  and  _486
REMARK  210  A    between atoms: _489  and  _491
REMARK  211  A    between atoms: _491  and  _492
REMARK  212  A    between atoms: _491  and  _494
REMARK  213  A    between atoms: _494  and  _495
REMARK  214  A    between atoms: _498  and  _500
REMARK  215  A    between atoms: _500  and  _501
REMARK  216  A    between atoms: _500  and  _503
REMARK  217  A    between atoms: _503  and  _504
REMARK  218  A    between atoms: _504  and  _505
REMARK  219  A    between atoms: _508  and  _510
REMARK  220  A    between atoms: _510  and  _511
REMARK  221  A    between atoms: _510  and  _513
REMARK  222  A    between atoms: _513  and  _514
REMARK  223  A    between atoms: _514  and  _515
REMARK  224  A    between atoms: _515  and  _516
REMARK  225  A    between atoms: _525  and  _527
REMARK  226  A    between atoms: _527  and  _528
REMARK  227  A    between atoms: _527  and  _530
REMARK  228  A    between atoms: _530  and  _531
REMARK  229  A    between atoms: _534  and  _536
REMARK  230  A    between atoms: _536  and  _537
REMARK  231  A    between atoms: _536  and  _539
REMARK  232  A    between atoms: _539  and  _540
REMARK  233  A    between atoms: _543  and  _545
REMARK  234  A    between atoms: _545  and  _546
REMARK  235  A    between atoms: _545  and  _548
REMARK  236  A    between atoms: _548  and  _549
REMARK  237  A    between atoms: _552  and  _554
REMARK  238  A    between atoms: _554  and  _555
REMARK  239  A    between atoms: _554  and  _557
REMARK  240  A    between atoms: _557  and  _558
REMARK  241  A    between atoms: _564  and  _566
REMARK  242  A    between atoms: _566  and  _567
REMARK  243  A    between atoms: _569  and  _571
REMARK  244  A    between atoms: _571  and  _572
REMARK  245  A    between atoms: _571  and  _574
REMARK  246  A    between atoms: _574  and  _575
REMARK  247  A    between atoms: _578  and  _580
REMARK  248  A    between atoms: _580  and  _581
REMARK  249  A    between atoms: _580  and  _583
REMARK  250  A    between atoms: _583  and  _584
REMARK  251  A    between atoms: _586  and  _588
REMARK  252  A    between atoms: _588  and  _589
REMARK  253  A    between atoms: _588  and  _591
REMARK  254  A    between atoms: _591  and  _592
REMARK  255  A    between atoms: _595  and  _597
REMARK  256  A    between atoms: _597  and  _598
REMARK  257  A    between atoms: _597  and  _600
REMARK  258  A    between atoms: _600  and  _601
REMARK  259  A    between atoms: _606  and  _608
REMARK  260  A    between atoms: _608  and  _609
REMARK  261  A    between atoms: _608  and  _611
REMARK  262  A    between atoms: _611  and  _612
REMARK  263  A    between atoms: _618  and  _620
REMARK  264  A    between atoms: _620  and  _621
REMARK  265  A    between atoms: _620  and  _623
REMARK  266  A    between atoms: _623  and  _624
REMARK  267  A    between atoms: _624  and  _625
REMARK  268  A    between atoms: _625  and  _626
REMARK  269  A    between atoms: _626  and  _627
REMARK                            x       y       z     vdW  Elec       q    Type
REMARK                         _______ _______ _______ _____ _____    ______ ____
ROOT
ATOM      1  CA  VAL A   3      16.318  17.991  68.118  0.00  0.00    +0.149 C 
ENDROOT
BRANCH   1   2
ATOM      2  C   VAL A   3      17.550  17.402  68.760  0.00  0.00    +0.241 C 
ATOM      3  N   ILE A   4      17.326  16.603  69.786  0.00  0.00    -0.297 N 
ATOM      4  H   ILE A   4      16.345  16.322  69.989  0.00  0.00    +0.150 HD
ATOM      5  O   VAL A   3      18.665  17.692  68.355  0.00  0.00    -0.273 OA
BRANCH   3   6
ATOM      6  CA  ILE A   4      18.378  16.098  70.644  0.00  0.00    +0.149 C 
BRANCH   6   7
ATOM      7  C   ILE A   4      18.381  14.580  70.504  0.00  0.00    +0.241 C 
ATOM      8  O   ILE A   4      17.312  13.973  70.512  0.00  0.00    -0.273 OA
ATOM      9  N   LEU A   5      19.556  13.971  70.352  0.00  0.00    -0.298 N 
ATOM     10  H   LEU A   5      20.405  14.551  70.196  0.00  0.00    +0.150 HD
BRANCH   9  11
ATOM     11  CA  LEU A   5      19.694  12.521  70.397  0.00  0.00    +0.137 C 
BRANCH  11  12
ATOM     12  C   LEU A   5      19.619  12.132  71.870  0.00  0.00    +0.227 C 
ATOM     13  O   LEU A   5      20.410  12.630  72.691  0.00  0.00    -0.286 OA
ENDBRANCH  11  12
BRANCH  11  14
ATOM     14  CB  LEU A   5      21.028  12.055  69.767  0.00  0.00    +0.028 C 
BRANCH  14  15
ATOM     15  CG  LEU A   5      21.329  10.550  69.741  0.00  0.00    +0.002 C 
ATOM     16  CD2 LEU A   5      22.808  10.207  69.477  0.00  0.00    +0.000 C 
ATOM     17  CD1 LEU A   5      20.425   9.858  68.725  0.00  0.00    +0.000 C 
ENDBRANCH  14  15
ENDBRANCH  11  14
ENDBRANCH   9  11
ENDBRANCH   6   7
BRANCH   6  18
ATOM     18  CB  ILE A   4      18.056  16.457  72.111  0.00  0.00    +0.027 C 
ATOM     19  CG2 ILE A   4      19.161  15.993  73.056  0.00  0.00    +0.002 C 
BRANCH  18  20
ATOM     20  CG1 ILE A   4      17.829  17.958  72.275  0.00  0.00    +0.002 C 
ATOM     21  CD1 ILE A   4      19.060  18.805  72.065  0.00  0.00    +0.000 C 
ENDBRANCH  18  20
ENDBRANCH   6  18
ENDBRANCH   3   6
ENDBRANCH   1   2
BRANCH   1  24
ATOM     22  C   GLU A   2      15.541  20.228  68.671  0.00  0.00    +0.241 C 
ATOM     23  O   GLU A   2      14.511  19.826  69.218  0.00  0.00    -0.273 OA
ATOM     24  N   VAL A   3      16.456  19.430  68.133  0.00  0.00    -0.297 N 
ATOM     25  H   VAL A   3      17.303  19.856  67.707  0.00  0.00    +0.150 HD
BRANCH  22  26
ATOM     26  CA  GLU A   2      15.841  21.696  68.574  0.00  0.00    +0.149 C 
BRANCH  26  28
ATOM     27  C   GLY A   1      13.812  22.625  67.572  0.00  0.00    +0.265 C 
ATOM     28  N   GLU A   2      14.611  22.487  68.621  0.00  0.00    -0.294 N 
ATOM     29  H   GLU A   2      14.354  22.959  69.511  0.00  0.00    +0.150 HD
ATOM     30  O   GLY A   1      14.032  22.114  66.463  0.00  0.00    -0.268 OA
BRANCH  27  32
ATOM     31  N   GLY A   1      11.592  23.534  66.737  0.00  0.00    -0.293 NA
ATOM     32  CA  GLY A   1      12.563  23.441  67.835  0.00  0.00    +0.147 C 
ATOM     33  H   GLY A   1      11.849  23.218  65.780  0.00  0.00    +0.187 HD
ENDBRANCH  27  32
ENDBRANCH  26  28
BRANCH  26  34
ATOM     34  CB  GLU A   2      16.795  22.086  69.704  0.00  0.00    +0.041 C 
BRANCH  34  35
ATOM     35  CG  GLU A   2      17.673  23.285  69.369  0.00  0.00    +0.116 C 
BRANCH  35  36
ATOM     36  CD  GLU A   2      18.912  23.393  70.253  0.00  0.00    +0.365 C 
ATOM     37  OE2 GLU A   2      19.367  22.367  70.808  0.00  0.00    -0.246 OA
ATOM     38  OE1 GLU A   2      19.430  24.520  70.393  0.00  0.00    -0.246 OA
ENDBRANCH  35  36
ENDBRANCH  34  35
ENDBRANCH  26  34
ENDBRANCH  22  26
ENDBRANCH   1  24
BRANCH   1  39
ATOM     39  CB  VAL A   3      16.177  17.478  66.697  0.00  0.00    +0.027 C 
ATOM     40  CG2 VAL A   3      16.039  15.959  66.706  0.00  0.00    +0.002 C 
ATOM     41  CG1 VAL A   3      15.002  18.197  66.030  0.00  0.00    +0.002 C 
ENDBRANCH   1  39
TORSDOF 17
REMARK  Name = ../refined-set-2016/3v51/3v51_pocket.pdb
REMARK  269 active torsions:
REMARK  status: ('A' for Active; 'I' for Inactive)
REMARK    1  A    between atoms: _1  and  _3
REMARK    2  A    between atoms: _3  and  _4
REMARK    3  A    between atoms: _3  and  _6
REMARK    4  A    between atoms: _6  and  _7
REMARK    5  A    between atoms: _7  and  _8
REMARK    6  A    between atoms: _8  and  _9
REMARK    7  A    between atoms: _18  and  _20
REMARK    8  A    between atoms: _20  and  _21
REMARK    9  A    between atoms: _20  and  _23
REMARK   10  A    between atoms: _26  and  _28
REMARK   11  A    between atoms: _28  and  _29
REMARK   12  A    between atoms: _28  and  _31
REMARK   13  A    between atoms: _31  and  _32
REMARK   14  A    between atoms: _35  and  _37
REMARK   15  A    between atoms: _37  and  _38
REMARK   16  A    between atoms: _40  and  _42
REMARK   17  A    between atoms: _42  and  _43
REMARK   18  A    between atoms: _42  and  _45
REMARK   19  A    between atoms: _45  and  _46
REMARK   20  A    between atoms: _46  and  _47
REMARK   21  A    between atoms: _47  and  _48
REMARK   22  A    between atoms: _48  and  _49
REMARK   23  A    between atoms: _53  and  _55
REMARK   24  A    between atoms: _55  and  _56
REMARK   25  A    between atoms: _58  and  _60
REMARK   26  A    between atoms: _60  and  _61
REMARK   27  A    between atoms: _60  and  _63
REMARK   28  A    between atoms: _63  and  _64
REMARK   29  A    between atoms: _68  and  _69
REMARK   30  A    between atoms: _71  and  _73
REMARK   31  A    between atoms: _73  and  _74
REMARK   32  A    between atoms: _73  and  _76
REMARK   33  A    between atoms: _76  and  _77
REMARK   34  A    between atoms: _77  and  _78
REMARK   35  A    between atoms: _81  and  _83
REMARK   36  A    between atoms: _83  and  _84
REMARK   37  A    between atoms: _83  and  _86
REMARK   38  A    between atoms: _89  and  _91
REMARK   39  A    between atoms: _91  and  _92
REMARK   40  A    between atoms: _91  and  _94
REMARK   41  A    between atoms: _94  and  _95
REMARK   42  A    between atoms: _98  and  _100
REMARK   43  A    between atoms: _100  and  _101
REMARK   44  A    between atoms: _100  and  _103
REMARK   45  A    between atoms: _103  and  _104
REMARK   46  A    between atoms: _107  and  _109
REMARK   47  A    between atoms: _109  and  _110
REMARK   48  A    between atoms: _109  and  _112
REMARK   49  A    between atoms: _114  and  _116
REMARK   50  A    between atoms: _116  and  _117
REMARK   51  A    between atoms: _120  and  _122
REMARK   52  A    between atoms: _122  and  _123
REMARK   53  A    between atoms: _122  and  _125
REMARK   54  A    between atoms: _128  and  _130
REMARK   55  A    between atoms: _130  and  _131
REMARK   56  A    between atoms: _130  and  _133
REMARK   57  A    between atoms: _133  and  _134
REMARK   58  A    between atoms: _134  and  _135
REMARK   59  A    between atoms: _135  and  _136
REMARK   60  A    between atoms: _136  and  _137
REMARK   61  A    between atoms: _141  and  _143
REMARK   62  A    between atoms: _143  and  _144
REMARK   63  A    between atoms: _143  and  _146
REMARK   64  A    between atoms: _149  and  _151
REMARK   65  A    between atoms: _151  and  _152
REMARK   66  A    between atoms: _151  and  _154
REMARK   67  A    between atoms: _154  and  _155
REMARK   68  A    between atoms: _158  and  _160
REMARK   69  A    between atoms: _160  and  _161
REMARK   70  A    between atoms: _160  and  _163
REMARK   71  A    between atoms: _163  and  _164
REMARK   72  A    between atoms: _167  and  _169
REMARK   73  A    between atoms: _169  and  _170
REMARK   74  A    between atoms: _169  and  _172
REMARK   75  A    between atoms: _172  and  _173
REMARK   76  A    between atoms: _175  and  _177
REMARK   77  A    between atoms: _177  and  _178
REMARK   78  A    between atoms: _177  and  _180
REMARK   79  A    between atoms: _180  and  _181
REMARK   80  A    between atoms: _184  and  _186
REMARK   81  A    between atoms: _186  and  _187
REMARK   82  A    between atoms: _186  and  _189
REMARK   83  A    between atoms: _189  and  _190
REMARK   84  A    between atoms: _193  and  _195
REMARK   85  A    between atoms: _195  and  _196
REMARK   86  A    between atoms: _195  and  _198
REMARK   87  A    between atoms: _198  and  _199
REMARK   88  A    between atoms: _199  and  _200
REMARK   89  A    between atoms: _203  and  _205
REMARK   90  A    between atoms: _205  and  _206
REMARK   91  A    between atoms: _205  and  _208
REMARK   92  A    between atoms: _211  and  _213
REMARK   93  A    between atoms: _213  and  _214
REMARK   94  A    between atoms: _213  and  _216
REMARK   95  A    between atoms: _216  and  _217
REMARK   96  A    between atoms: _217  and  _218
REMARK   97  A    between atoms: _223  and  _225
REMARK   98  A    between atoms: _225  and  _226
REMARK   99  A    between atoms: _225  and  _228
REMARK  100  A    between atoms: _228  and  _229
REMARK  101  A    between atoms: _232  and  _234
REMARK  102  A    between atoms: _234  and  _235
REMARK  103  A    between atoms: _234  and  _237
REMARK  104  A    between atoms: _237  and  _238
REMARK  105  A    between atoms: _238  and  _239
REMARK  106  A    between atoms: _239  and  _240
REMARK  107  A    between atoms: _240  and  _241
REMARK  108  A    between atoms: _245  and  _247
REMARK  109  A    between atoms: _247  and  _248
REMARK  110  A    between atoms: _247  and  _250
REMARK  111  A    between atoms: _250  and  _251
REMARK  112  A    between atoms: _251  and  _252
REMARK  113  A    between atoms: _254  and  _256
REMARK  114  A    between atoms: _256  and  _257
REMARK  115  A    between atoms: _256  and  _259
REMARK  116  A    between atoms: _259  and  _260
REMARK  117  A    between atoms: _260  and  _261
REMARK  118  A    between atoms: _261  and  _262
REMARK  119  A    between atoms: _262  and  _263
REMARK  120  A    between atoms: _267  and  _269
REMARK  121  A    between atoms: _269  and  _270
REMARK  122  A    between atoms: _269  and  _272
REMARK  123  A    between atoms: _272  and  _273
REMARK  124  A    between atoms: _276  and  _278
REMARK  125  A    between atoms: _278  and  _279
REMARK  126  A    between atoms: _278  and  _281
REMARK  127  A    between atoms: _281  and  _282
REMARK  128  A    between atoms: _287  and  _288
REMARK  129  A    between atoms: _290  and  _292
REMARK  130  A    between atoms: _292  and  _293
REMARK  131  A    between atoms: _292  and  _295
REMARK  132  A    between atoms: _295  and  _296
REMARK  133  A    between atoms: _296  and  _297
REMARK  134  A    between atoms: _300  and  _302
REMARK  135  A    between atoms: _302  and  _303
REMARK  136  A    between atoms: _302  and  _305
REMARK  137  A    between atoms: _305  and  _306
REMARK  138  A    between atoms: _312  and  _314
REMARK  139  A    between atoms: _314  and  _315
REMARK  140  A    between atoms: _314  and  _317
REMARK  141  A    between atoms: _317  and  _318
REMARK  142  A    between atoms: _324  and  _326
REMARK  143  A    between atoms: _326  and  _327
REMARK  144  A    between atoms: _326  and  _329
REMARK  145  A    between atoms: _329  and  _330
REMARK  146  A    between atoms: _336  and  _338
REMARK  147  A    between atoms: _338  and  _339
REMARK  148  A    between atoms: _338  and  _341
REMARK  149  A    between atoms: _341  and  _342
REMARK  150  A    between atoms: _347  and  _348
REMARK  151  A    between atoms: _350  and  _352
REMARK  152  A    between atoms: _352  and  _353
REMARK  153  A    between atoms: _352  and  _355
REMARK  154  A    between atoms: _355  and  _356
REMARK  155  A    between atoms: _359  and  _361
REMARK  156  A    between atoms: _361  and  _362
REMARK  157  A    between atoms: _361  and  _364
REMARK  158  A    between atoms: _367  and  _369
REMARK  159  A    between atoms: _369  and  _370
REMARK  160  A    between atoms: _372  and  _374
REMARK  161  A    between atoms: _374  and  _375
REMARK  162  A    between atoms: _374  and  _377
REMARK  163  A    between atoms: _377  and  _378
REMARK  164  A    between atoms: _378  and  _379
REMARK  165  A    between atoms: _382  and  _384
REMARK  166  A    between atoms: _384  and  _385
REMARK  167  A    between atoms: _384  and  _387
REMARK  168  A    between atoms: _390  and  _392
REMARK  169  A    between atoms: _392  and  _393
REMARK  170  A    between atoms: _392  and  _395
REMARK  171  A    between atoms: _395  and  _396
REMARK  172  A    between atoms: _401  and  _402
REMARK  173  A    between atoms: _404  and  _406
REMARK  174  A    between atoms: _406  and  _407
REMARK  175  A    between atoms: _406  and  _409
REMARK  176  A    between atoms: _409  and  _410
REMARK  177  A    between atoms: _413  and  _415
REMARK  178  A    between atoms: _415  and  _416
REMARK  179  A    between atoms: _418  and  _420
REMARK  180  A    between atoms: _420  and  _421
REMARK  181  A    between atoms: _423  and  _425
REMARK  182  A    between atoms: _425  and  _426
REMARK  183  A    between atoms: _425  and  _428
REMARK  184  A    between atoms: _428  and  _429
REMARK  185  A    between atoms: _429  and  _430
REMARK  186  A    between atoms: _433  and  _435
REMARK  187  A    between atoms: _435  and  _436
REMARK  188  A    between atoms: _435  and  _438
REMARK  189  A    between atoms: _438  and  _439
REMARK  190  A    between atoms: _442  and  _444
REMARK  191  A    between atoms: _444  and  _445
REMARK  192  A    between atoms: _444  and  _447
REMARK  193  A    between atoms: _450  and  _452
REMARK  194  A    between atoms: _452  and  _453
REMARK  195  A    between atoms: _452  and  _455
REMARK  196  A    between atoms: _455  and  _456
REMARK  197  A    between atoms: _456  and  _457
REMARK  198  A    between atoms: _460  and  _462
REMARK  199  A    between atoms: _462  and  _463
REMARK  200  A    between atoms: _462  and  _465
REMARK  201  A    between atoms: _465  and  _466
REMARK  202  A    between atoms: _471  and  _473
REMARK  203  A    between atoms: _473  and  _474
REMARK  204  A    between atoms: _473  and  _476
REMARK  205  A    between atoms: _476  and  _477
REMARK  206  A    between atoms: _480  and  _482
REMARK  207  A    between atoms: _482  and  _483
REMARK  208  A    between atoms: _482  and  _485
REMARK  209  A    between atoms: _485  and  _486
REMARK  210  A    between atoms: _489  and  _491
REMARK  211  A    between atoms: _491  and  _492
REMARK  212  A    between atoms: _491  and  _494
REMARK  213  A    between atoms: _494  and  _495
REMARK  214  A    between atoms: _498  and  _500
REMARK  215  A    between atoms: _500  and  _501
REMARK  216  A    between atoms: _500  and  _503
REMARK  217  A    between atoms: _503  and  _504
REMARK  218  A    between atoms: _504  and  _505
REMARK  219  A    between atoms: _508  and  _510
REMARK  220  A    between atoms: _510  and  _511
REMARK  221  A    between atoms: _510  and  _513
REMARK  222  A    between atoms: _513  and  _514
REMARK  223  A    between atoms: _514  and  _515
REMARK  224  A    between atoms: _515  and  _516
REMARK  225  A    between atoms: _525  and  _527
REMARK  226  A    between atoms: _527  and  _528
REMARK  227  A    between atoms: _527  and  _530
REMARK  228  A    between atoms: _530  and  _531
REMARK  229  A    between atoms: _534  and  _536
REMARK  230  A    between atoms: _536  and  _537
REMARK  231  A    between atoms: _536  and  _539
REMARK  232  A    between atoms: _539  and  _540
REMARK  233  A    between atoms: _543  and  _545
REMARK  234  A    between atoms: _545  and  _546
REMARK  235  A    between atoms: _545  and  _548
REMARK  236  A    between atoms: _548  and  _549
REMARK  237  A    between atoms: _552  and  _554
REMARK  238  A    between atoms: _554  and  _555
REMARK  239  A    between atoms: _554  and  _557
REMARK  240  A    between atoms: _557  and  _558
REMARK  241  A    between atoms: _564  and  _566
REMARK  242  A    between atoms: _566  and  _567
REMARK  243  A    between atoms: _569  and  _571
REMARK  244  A    between atoms: _571  and  _572
REMARK  245  A    between atoms: _571  and  _574
REMARK  246  A    between atoms: _574  and  _575
REMARK  247  A    between atoms: _578  and  _580
REMARK  248  A    between atoms: _580  and  _581
REMARK  249  A    between atoms: _580  and  _583
REMARK  250  A    between atoms: _583  and  _584
REMARK  251  A    between atoms: _586  and  _588
REMARK  252  A    between atoms: _588  and  _589
REMARK  253  A    between atoms: _588  and  _591
REMARK  254  A    between atoms: _591  and  _592
REMARK  255  A    between atoms: _595  and  _597
REMARK  256  A    between atoms: _597  and  _598
REMARK  257  A    between atoms: _597  and  _600
REMARK  258  A    between atoms: _600  and  _601
REMARK  259  A    between atoms: _606  and  _608
REMARK  260  A    between atoms: _608  and  _609
REMARK  261  A    between atoms: _608  and  _611
REMARK  262  A    between atoms: _611  and  _612
REMARK  263  A    between atoms: _618  and  _620
REMARK  264  A    between atoms: _620  and  _621
REMARK  265  A    between atoms: _620  and  _623
REMARK  266  A    between atoms: _623  and  _624
REMARK  267  A    between atoms: _624  and  _625
REMARK  268  A    between atoms: _625  and  _626
REMARK  269  A    between atoms: _626  and  _627
REMARK                            x       y       z     vdW  Elec       q    Type
REMARK                         _______ _______ _______ _____ _____    ______ ____
ROOT
ATOM      1  CA  LYS A   4      12.091  17.339  69.030  0.00  0.00    +0.149 C 
ENDROOT
BRANCH   1   4
ATOM      2  C   VAL A   3      13.444  15.589  70.022  0.00  0.00    +0.241 C 
ATOM      3  O   VAL A   3      14.403  16.371  70.232  0.00  0.00    -0.273 OA
ATOM      4  N   LYS A   4      12.343  15.937  69.362  0.00  0.00    -0.297 N 
ATOM      5  H   LYS A   4      11.657  15.208  69.080  0.00  0.00    +0.150 HD
BRANCH   2   6
ATOM      6  CA  VAL A   3      13.508  14.162  70.487  0.00  0.00    +0.149 C 
BRANCH   6   8
ATOM      7  C   ALA A   2      14.263  12.539  68.852  0.00  0.00    +0.241 C 
ATOM      8  N   VAL A   3      14.558  13.436  69.774  0.00  0.00    -0.297 N 
ATOM      9  H   VAL A   3      15.555  13.630  69.997  0.00  0.00    +0.150 HD
ATOM     10  O   ALA A   2      13.108  12.283  68.524  0.00  0.00    -0.273 OA
BRANCH   7  11
ATOM     11  CA  ALA A   2      15.433  11.767  68.263  0.00  0.00    +0.149 C 
ATOM     12  CB  ALA A   2      15.449  11.907  66.747  0.00  0.00    +0.031 C 
BRANCH  11  15
ATOM     13  C   CYS A   1      16.023   9.766  69.579  0.00  0.00    +0.239 C 
ATOM     14  O   CYS A   1      16.955  10.316  70.145  0.00  0.00    -0.274 OA
ATOM     15  N   ALA A   2      15.263  10.368  68.661  0.00  0.00    -0.297 N 
ATOM     16  H   ALA A   2      14.510   9.814  68.204  0.00  0.00    +0.150 HD
BRANCH  13  17
ATOM     17  CA  CYS A   1      15.676   8.313  69.886  0.00  0.00    +0.156 C 
BRANCH  17  18
ATOM     18  N   CYS A   1      16.781   7.610  70.539  0.00  0.00    -0.237 NA
ATOM     19  H   CYS A   1      17.452   8.147  71.125  0.00  0.00    +0.142 HD
ENDBRANCH  17  18
BRANCH  17  20
ATOM     20  CB  CYS A   1      14.443   8.253  70.771  0.00  0.00    +0.095 C 
ATOM     21  SG  CYS A   1      14.730   8.899  72.432  0.00  0.00    -0.080 S 
ENDBRANCH  17  20
ENDBRANCH  13  17
ENDBRANCH  11  15
ENDBRANCH   7  11
ENDBRANCH   6   8
BRANCH   6  22
ATOM     22  CB  VAL A   3      13.735  14.137  71.998  0.00  0.00    +0.027 C 
ATOM     23  CG2 VAL A   3      12.596  14.835  72.721  0.00  0.00    +0.002 C 
ATOM     24  CG1 VAL A   3      13.878  12.706  72.468  0.00  0.00    +0.002 C 
ENDBRANCH   6  22
ENDBRANCH   2   6
ENDBRANCH   1   4
BRANCH   1  25
ATOM     25  C   LYS A   4      11.516  18.015  70.250  0.00  0.00    +0.241 C 
ATOM     26  O   LYS A   4      10.498  17.569  70.802  0.00  0.00    -0.273 OA
ATOM     27  N   VAL A   5      12.177  19.087  70.686  0.00  0.00    -0.297 N 
ATOM     28  H   VAL A   5      13.003  19.424  70.151  0.00  0.00    +0.150 HD
BRANCH  27  29
ATOM     29  CA  VAL A   5      11.780  19.794  71.880  0.00  0.00    +0.149 C 
BRANCH  29  30
ATOM     30  C   VAL A   5      11.184  21.137  71.474  0.00  0.00    +0.241 C 
ATOM     31  N   ILE A   6       9.884  21.287  71.701  0.00  0.00    -0.298 N 
ATOM     32  H   ILE A   6       9.341  20.499  72.107  0.00  0.00    +0.150 HD
ATOM     33  O   VAL A   5      11.886  22.021  70.949  0.00  0.00    -0.273 OA
BRANCH  31  34
ATOM     34  CA  ILE A   6       9.201  22.551  71.387  0.00  0.00    +0.137 C 
BRANCH  34  35
ATOM     35  CB  ILE A   6       7.836  22.306  70.725  0.00  0.00    +0.026 C 
ATOM     36  CG2 ILE A   6       7.148  23.641  70.448  0.00  0.00    +0.002 C 
BRANCH  35  37
ATOM     37  CG1 ILE A   6       8.003  21.454  69.453  0.00  0.00    +0.002 C 
ATOM     38  CD1 ILE A   6       6.692  20.983  68.828  0.00  0.00    +0.000 C 
ENDBRANCH  35  37
ENDBRANCH  34  35
BRANCH  34  39
ATOM     39  C   ILE A   6       9.016  23.409  72.643  0.00  0.00    +0.227 C 
ATOM     40  O   ILE A   6       8.426  22.973  73.631  0.00  0.00    -0.286 OA
ENDBRANCH  34  39
ENDBRANCH  31  34
ENDBRANCH  29  30
BRANCH  29  41
ATOM     41  CB  VAL A   5      12.964  19.977  72.852  0.00  0.00    +0.027 C 
ATOM     42  CG2 VAL A   5      12.515  20.693  74.116  0.00  0.00    +0.002 C 
ATOM     43  CG1 VAL A   5      13.578  18.630  73.195  0.00  0.00    +0.002 C 
ENDBRANCH  29  41
ENDBRANCH  27  29
ENDBRANCH   1  25
BRANCH   1  44
ATOM     44  CB  LYS A   4      11.125  17.464  67.841  0.00  0.00    +0.029 C 
BRANCH  44  45
ATOM     45  CG  LYS A   4      10.929  18.893  67.383  0.00  0.00    +0.000 C 
BRANCH  45  46
ATOM     46  CD  LYS A   4      10.426  18.992  65.957  0.00  0.00    -0.024 C 
BRANCH  46  47
ATOM     47  CE  LYS A   4      11.550  18.963  64.937  0.00  0.00    -0.086 C 
BRANCH  47  48
ATOM     48  NZ  LYS A   4      11.113  19.456  63.601  0.00  0.00    +0.380 N 
ATOM     49  HZ1 LYS A   4      10.780  20.438  63.687  0.00  0.00    -0.089 HD
ATOM     50  HZ2 LYS A   4      10.340  18.856  63.247  0.00  0.00    -0.089 HD
ATOM     51  HZ3 LYS A   4      11.914  19.417  62.939  0.00  0.00    -0.089 HD
ENDBRANCH  47  48
ENDBRANCH  46  47
ENDBRANCH  45  46
ENDBRANCH  44  45
ENDBRANCH   1  44
TORSDOF 22
REMARK  Name = ../refined-set-2016/3v51/3v51_pocket.pdb
REMARK  269 active torsions:
REMARK  status: ('A' for Active; 'I' for Inactive)
REMARK    1  A    between atoms: _1  and  _3
REMARK    2  A    between atoms: _3  and  _4
REMARK    3  A    between atoms: _3  and  _6
REMARK    4  A    between atoms: _6  and  _7
REMARK    5  A    between atoms: _7  and  _8
REMARK    6  A    between atoms: _8  and  _9
REMARK    7  A    between atoms: _18  and  _20
REMARK    8  A    between atoms: _20  and  _21
REMARK    9  A    between atoms: _20  and  _23
REMARK   10  A    between atoms: _26  and  _28
REMARK   11  A    between atoms: _28  and  _29
REMARK   12  A    between atoms: _28  and  _31
REMARK   13  A    between atoms: _31  and  _32
REMARK   14  A    between atoms: _35  and  _37
REMARK   15  A    between atoms: _37  and  _38
REMARK   16  A    between atoms: _40  and  _42
REMARK   17  A    between atoms: _42  and  _43
REMARK   18  A    between atoms: _42  and  _45
REMARK   19  A    between atoms: _45  and  _46
REMARK   20  A    between atoms: _46  and  _47
REMARK   21  A    between atoms: _47  and  _48
REMARK   22  A    between atoms: _48  and  _49
REMARK   23  A    between atoms: _53  and  _55
REMARK   24  A    between atoms: _55  and  _56
REMARK   25  A    between atoms: _58  and  _60
REMARK   26  A    between atoms: _60  and  _61
REMARK   27  A    between atoms: _60  and  _63
REMARK   28  A    between atoms: _63  and  _64
REMARK   29  A    between atoms: _68  and  _69
REMARK   30  A    between atoms: _71  and  _73
REMARK   31  A    between atoms: _73  and  _74
REMARK   32  A    between atoms: _73  and  _76
REMARK   33  A    between atoms: _76  and  _77
REMARK   34  A    between atoms: _77  and  _78
REMARK   35  A    between atoms: _81  and  _83
REMARK   36  A    between atoms: _83  and  _84
REMARK   37  A    between atoms: _83  and  _86
REMARK   38  A    between atoms: _89  and  _91
REMARK   39  A    between atoms: _91  and  _92
REMARK   40  A    between atoms: _91  and  _94
REMARK   41  A    between atoms: _94  and  _95
REMARK   42  A    between atoms: _98  and  _100
REMARK   43  A    between atoms: _100  and  _101
REMARK   44  A    between atoms: _100  and  _103
REMARK   45  A    between atoms: _103  and  _104
REMARK   46  A    between atoms: _107  and  _109
REMARK   47  A    between atoms: _109  and  _110
REMARK   48  A    between atoms: _109  and  _112
REMARK   49  A    between atoms: _114  and  _116
REMARK   50  A    between atoms: _116  and  _117
REMARK   51  A    between atoms: _120  and  _122
REMARK   52  A    between atoms: _122  and  _123
REMARK   53  A    between atoms: _122  and  _125
REMARK   54  A    between atoms: _128  and  _130
REMARK   55  A    between atoms: _130  and  _131
REMARK   56  A    between atoms: _130  and  _133
REMARK   57  A    between atoms: _133  and  _134
REMARK   58  A    between atoms: _134  and  _135
REMARK   59  A    between atoms: _135  and  _136
REMARK   60  A    between atoms: _136  and  _137
REMARK   61  A    between atoms: _141  and  _143
REMARK   62  A    between atoms: _143  and  _144
REMARK   63  A    between atoms: _143  and  _146
REMARK   64  A    between atoms: _149  and  _151
REMARK   65  A    between atoms: _151  and  _152
REMARK   66  A    between atoms: _151  and  _154
REMARK   67  A    between atoms: _154  and  _155
REMARK   68  A    between atoms: _158  and  _160
REMARK   69  A    between atoms: _160  and  _161
REMARK   70  A    between atoms: _160  and  _163
REMARK   71  A    between atoms: _163  and  _164
REMARK   72  A    between atoms: _167  and  _169
REMARK   73  A    between atoms: _169  and  _170
REMARK   74  A    between atoms: _169  and  _172
REMARK   75  A    between atoms: _172  and  _173
REMARK   76  A    between atoms: _175  and  _177
REMARK   77  A    between atoms: _177  and  _178
REMARK   78  A    between atoms: _177  and  _180
REMARK   79  A    between atoms: _180  and  _181
REMARK   80  A    between atoms: _184  and  _186
REMARK   81  A    between atoms: _186  and  _187
REMARK   82  A    between atoms: _186  and  _189
REMARK   83  A    between atoms: _189  and  _190
REMARK   84  A    between atoms: _193  and  _195
REMARK   85  A    between atoms: _195  and  _196
REMARK   86  A    between atoms: _195  and  _198
REMARK   87  A    between atoms: _198  and  _199
REMARK   88  A    between atoms: _199  and  _200
REMARK   89  A    between atoms: _203  and  _205
REMARK   90  A    between atoms: _205  and  _206
REMARK   91  A    between atoms: _205  and  _208
REMARK   92  A    between atoms: _211  and  _213
REMARK   93  A    between atoms: _213  and  _214
REMARK   94  A    between atoms: _213  and  _216
REMARK   95  A    between atoms: _216  and  _217
REMARK   96  A    between atoms: _217  and  _218
REMARK   97  A    between atoms: _223  and  _225
REMARK   98  A    between atoms: _225  and  _226
REMARK   99  A    between atoms: _225  and  _228
REMARK  100  A    between atoms: _228  and  _229
REMARK  101  A    between atoms: _232  and  _234
REMARK  102  A    between atoms: _234  and  _235
REMARK  103  A    between atoms: _234  and  _237
REMARK  104  A    between atoms: _237  and  _238
REMARK  105  A    between atoms: _238  and  _239
REMARK  106  A    between atoms: _239  and  _240
REMARK  107  A    between atoms: _240  and  _241
REMARK  108  A    between atoms: _245  and  _247
REMARK  109  A    between atoms: _247  and  _248
REMARK  110  A    between atoms: _247  and  _250
REMARK  111  A    between atoms: _250  and  _251
REMARK  112  A    between atoms: _251  and  _252
REMARK  113  A    between atoms: _254  and  _256
REMARK  114  A    between atoms: _256  and  _257
REMARK  115  A    between atoms: _256  and  _259
REMARK  116  A    between atoms: _259  and  _260
REMARK  117  A    between atoms: _260  and  _261
REMARK  118  A    between atoms: _261  and  _262
REMARK  119  A    between atoms: _262  and  _263
REMARK  120  A    between atoms: _267  and  _269
REMARK  121  A    between atoms: _269  and  _270
REMARK  122  A    between atoms: _269  and  _272
REMARK  123  A    between atoms: _272  and  _273
REMARK  124  A    between atoms: _276  and  _278
REMARK  125  A    between atoms: _278  and  _279
REMARK  126  A    between atoms: _278  and  _281
REMARK  127  A    between atoms: _281  and  _282
REMARK  128  A    between atoms: _287  and  _288
REMARK  129  A    between atoms: _290  and  _292
REMARK  130  A    between atoms: _292  and  _293
REMARK  131  A    between atoms: _292  and  _295
REMARK  132  A    between atoms: _295  and  _296
REMARK  133  A    between atoms: _296  and  _297
REMARK  134  A    between atoms: _300  and  _302
REMARK  135  A    between atoms: _302  and  _303
REMARK  136  A    between atoms: _302  and  _305
REMARK  137  A    between atoms: _305  and  _306
REMARK  138  A    between atoms: _312  and  _314
REMARK  139  A    between atoms: _314  and  _315
REMARK  140  A    between atoms: _314  and  _317
REMARK  141  A    between atoms: _317  and  _318
REMARK  142  A    between atoms: _324  and  _326
REMARK  143  A    between atoms: _326  and  _327
REMARK  144  A    between atoms: _326  and  _329
REMARK  145  A    between atoms: _329  and  _330
REMARK  146  A    between atoms: _336  and  _338
REMARK  147  A    between atoms: _338  and  _339
REMARK  148  A    between atoms: _338  and  _341
REMARK  149  A    between atoms: _341  and  _342
REMARK  150  A    between atoms: _347  and  _348
REMARK  151  A    between atoms: _350  and  _352
REMARK  152  A    between atoms: _352  and  _353
REMARK  153  A    between atoms: _352  and  _355
REMARK  154  A    between atoms: _355  and  _356
REMARK  155  A    between atoms: _359  and  _361
REMARK  156  A    between atoms: _361  and  _362
REMARK  157  A    between atoms: _361  and  _364
REMARK  158  A    between atoms: _367  and  _369
REMARK  159  A    between atoms: _369  and  _370
REMARK  160  A    between atoms: _372  and  _374
REMARK  161  A    between atoms: _374  and  _375
REMARK  162  A    between atoms: _374  and  _377
REMARK  163  A    between atoms: _377  and  _378
REMARK  164  A    between atoms: _378  and  _379
REMARK  165  A    between atoms: _382  and  _384
REMARK  166  A    between atoms: _384  and  _385
REMARK  167  A    between atoms: _384  and  _387
REMARK  168  A    between atoms: _390  and  _392
REMARK  169  A    between atoms: _392  and  _393
REMARK  170  A    between atoms: _392  and  _395
REMARK  171  A    between atoms: _395  and  _396
REMARK  172  A    between atoms: _401  and  _402
REMARK  173  A    between atoms: _404  and  _406
REMARK  174  A    between atoms: _406  and  _407
REMARK  175  A    between atoms: _406  and  _409
REMARK  176  A    between atoms: _409  and  _410
REMARK  177  A    between atoms: _413  and  _415
REMARK  178  A    between atoms: _415  and  _416
REMARK  179  A    between atoms: _418  and  _420
REMARK  180  A    between atoms: _420  and  _421
REMARK  181  A    between atoms: _423  and  _425
REMARK  182  A    between atoms: _425  and  _426
REMARK  183  A    between atoms: _425  and  _428
REMARK  184  A    between atoms: _428  and  _429
REMARK  185  A    between atoms: _429  and  _430
REMARK  186  A    between atoms: _433  and  _435
REMARK  187  A    between atoms: _435  and  _436
REMARK  188  A    between atoms: _435  and  _438
REMARK  189  A    between atoms: _438  and  _439
REMARK  190  A    between atoms: _442  and  _444
REMARK  191  A    between atoms: _444  and  _445
REMARK  192  A    between atoms: _444  and  _447
REMARK  193  A    between atoms: _450  and  _452
REMARK  194  A    between atoms: _452  and  _453
REMARK  195  A    between atoms: _452  and  _455
REMARK  196  A    between atoms: _455  and  _456
REMARK  197  A    between atoms: _456  and  _457
REMARK  198  A    between atoms: _460  and  _462
REMARK  199  A    between atoms: _462  and  _463
REMARK  200  A    between atoms: _462  and  _465
REMARK  201  A    between atoms: _465  and  _466
REMARK  202  A    between atoms: _471  and  _473
REMARK  203  A    between atoms: _473  and  _474
REMARK  204  A    between atoms: _473  and  _476
REMARK  205  A    between atoms: _476  and  _477
REMARK  206  A    between atoms: _480  and  _482
REMARK  207  A    between atoms: _482  and  _483
REMARK  208  A    between atoms: _482  and  _485
REMARK  209  A    between atoms: _485  and  _486
REMARK  210  A    between atoms: _489  and  _491
REMARK  211  A    between atoms: _491  and  _492
REMARK  212  A    between atoms: _491  and  _494
REMARK  213  A    between atoms: _494  and  _495
REMARK  214  A    between atoms: _498  and  _500
REMARK  215  A    between atoms: _500  and  _501
REMARK  216  A    between atoms: _500  and  _503
REMARK  217  A    between atoms: _503  and  _504
REMARK  218  A    between atoms: _504  and  _505
REMARK  219  A    between atoms: _508  and  _510
REMARK  220  A    between atoms: _510  and  _511
REMARK  221  A    between atoms: _510  and  _513
REMARK  222  A    between atoms: _513  and  _514
REMARK  223  A    between atoms: _514  and  _515
REMARK  224  A    between atoms: _515  and  _516
REMARK  225  A    between atoms: _525  and  _527
REMARK  226  A    between atoms: _527  and  _528
REMARK  227  A    between atoms: _527  and  _530
REMARK  228  A    between atoms: _530  and  _531
REMARK  229  A    between atoms: _534  and  _536
REMARK  230  A    between atoms: _536  and  _537
REMARK  231  A    between atoms: _536  and  _539
REMARK  232  A    between atoms: _539  and  _540
REMARK  233  A    between atoms: _543  and  _545
REMARK  234  A    between atoms: _545  and  _546
REMARK  235  A    between atoms: _545  and  _548
REMARK  236  A    between atoms: _548  and  _549
REMARK  237  A    between atoms: _552  and  _554
REMARK  238  A    between atoms: _554  and  _555
REMARK  239  A    between atoms: _554  and  _557
REMARK  240  A    between atoms: _557  and  _558
REMARK  241  A    between atoms: _564  and  _566
REMARK  242  A    between atoms: _566  and  _567
REMARK  243  A    between atoms: _569  and  _571
REMARK  244  A    between atoms: _571  and  _572
REMARK  245  A    between atoms: _571  and  _574
REMARK  246  A    between atoms: _574  and  _575
REMARK  247  A    between atoms: _578  and  _580
REMARK  248  A    between atoms: _580  and  _581
REMARK  249  A    between atoms: _580  and  _583
REMARK  250  A    between atoms: _583  and  _584
REMARK  251  A    between atoms: _586  and  _588
REMARK  252  A    between atoms: _588  and  _589
REMARK  253  A    between atoms: _588  and  _591
REMARK  254  A    between atoms: _591  and  _592
REMARK  255  A    between atoms: _595  and  _597
REMARK  256  A    between atoms: _597  and  _598
REMARK  257  A    between atoms: _597  and  _600
REMARK  258  A    between atoms: _600  and  _601
REMARK  259  A    between atoms: _606  and  _608
REMARK  260  A    between atoms: _608  and  _609
REMARK  261  A    between atoms: _608  and  _611
REMARK  262  A    between atoms: _611  and  _612
REMARK  263  A    between atoms: _618  and  _620
REMARK  264  A    between atoms: _620  and  _621
REMARK  265  A    between atoms: _620  and  _623
REMARK  266  A    between atoms: _623  and  _624
REMARK  267  A    between atoms: _624  and  _625
REMARK  268  A    between atoms: _625  and  _626
REMARK  269  A    between atoms: _626  and  _627
REMARK                            x       y       z     vdW  Elec       q    Type
REMARK                         _______ _______ _______ _____ _____    ______ ____
ROOT
ATOM      1  CA  THR A   1      -5.438  23.609  68.449  0.00  0.00    +0.160 C 
ENDROOT
BRANCH   1   2
ATOM      2  N   THR A   1      -4.315  24.471  68.098  0.00  0.00    -0.237 NA
ATOM      3  H   THR A   1      -3.356  24.184  68.381  0.00  0.00    +0.142 HD
ENDBRANCH   1   2
BRANCH   1   4
ATOM      4  C   THR A   1      -5.453  23.472  69.964  0.00  0.00    +0.227 C 
ATOM      5  O   THR A   1      -4.499  23.881  70.628  0.00  0.00    -0.287 OA
ENDBRANCH   1   4
BRANCH   1   6
ATOM      6  CB  THR A   1      -5.295  22.221  67.785  0.00  0.00    +0.134 C 
ATOM      7  CG2 THR A   1      -5.450  22.333  66.258  0.00  0.00    +0.034 C 
BRANCH   6   8
ATOM      8  OG1 THR A   1      -4.007  21.665  68.096  0.00  0.00    -0.383 OA
ATOM      9  HG1 THR A   1      -3.921  20.776  67.668  0.00  0.00    +0.210 HD
ENDBRANCH   6   8
ENDBRANCH   1   6
TORSDOF 4
REMARK  Name = ../refined-set-2016/3v51/3v51_pocket.pdb
REMARK  269 active torsions:
REMARK  status: ('A' for Active; 'I' for Inactive)
REMARK    1  A    between atoms: _1  and  _3
REMARK    2  A    between atoms: _3  and  _4
REMARK    3  A    between atoms: _3  and  _6
REMARK    4  A    between atoms: _6  and  _7
REMARK    5  A    between atoms: _7  and  _8
REMARK    6  A    between atoms: _8  and  _9
REMARK    7  A    between atoms: _18  and  _20
REMARK    8  A    between atoms: _20  and  _21
REMARK    9  A    between atoms: _20  and  _23
REMARK   10  A    between atoms: _26  and  _28
REMARK   11  A    between atoms: _28  and  _29
REMARK   12  A    between atoms: _28  and  _31
REMARK   13  A    between atoms: _31  and  _32
REMARK   14  A    between atoms: _35  and  _37
REMARK   15  A    between atoms: _37  and  _38
REMARK   16  A    between atoms: _40  and  _42
REMARK   17  A    between atoms: _42  and  _43
REMARK   18  A    between atoms: _42  and  _45
REMARK   19  A    between atoms: _45  and  _46
REMARK   20  A    between atoms: _46  and  _47
REMARK   21  A    between atoms: _47  and  _48
REMARK   22  A    between atoms: _48  and  _49
REMARK   23  A    between atoms: _53  and  _55
REMARK   24  A    between atoms: _55  and  _56
REMARK   25  A    between atoms: _58  and  _60
REMARK   26  A    between atoms: _60  and  _61
REMARK   27  A    between atoms: _60  and  _63
REMARK   28  A    between atoms: _63  and  _64
REMARK   29  A    between atoms: _68  and  _69
REMARK   30  A    between atoms: _71  and  _73
REMARK   31  A    between atoms: _73  and  _74
REMARK   32  A    between atoms: _73  and  _76
REMARK   33  A    between atoms: _76  and  _77
REMARK   34  A    between atoms: _77  and  _78
REMARK   35  A    between atoms: _81  and  _83
REMARK   36  A    between atoms: _83  and  _84
REMARK   37  A    between atoms: _83  and  _86
REMARK   38  A    between atoms: _89  and  _91
REMARK   39  A    between atoms: _91  and  _92
REMARK   40  A    between atoms: _91  and  _94
REMARK   41  A    between atoms: _94  and  _95
REMARK   42  A    between atoms: _98  and  _100
REMARK   43  A    between atoms: _100  and  _101
REMARK   44  A    between atoms: _100  and  _103
REMARK   45  A    between atoms: _103  and  _104
REMARK   46  A    between atoms: _107  and  _109
REMARK   47  A    between atoms: _109  and  _110
REMARK   48  A    between atoms: _109  and  _112
REMARK   49  A    between atoms: _114  and  _116
REMARK   50  A    between atoms: _116  and  _117
REMARK   51  A    between atoms: _120  and  _122
REMARK   52  A    between atoms: _122  and  _123
REMARK   53  A    between atoms: _122  and  _125
REMARK   54  A    between atoms: _128  and  _130
REMARK   55  A    between atoms: _130  and  _131
REMARK   56  A    between atoms: _130  and  _133
REMARK   57  A    between atoms: _133  and  _134
REMARK   58  A    between atoms: _134  and  _135
REMARK   59  A    between atoms: _135  and  _136
REMARK   60  A    between atoms: _136  and  _137
REMARK   61  A    between atoms: _141  and  _143
REMARK   62  A    between atoms: _143  and  _144
REMARK   63  A    between atoms: _143  and  _146
REMARK   64  A    between atoms: _149  and  _151
REMARK   65  A    between atoms: _151  and  _152
REMARK   66  A    between atoms: _151  and  _154
REMARK   67  A    between atoms: _154  and  _155
REMARK   68  A    between atoms: _158  and  _160
REMARK   69  A    between atoms: _160  and  _161
REMARK   70  A    between atoms: _160  and  _163
REMARK   71  A    between atoms: _163  and  _164
REMARK   72  A    between atoms: _167  and  _169
REMARK   73  A    between atoms: _169  and  _170
REMARK   74  A    between atoms: _169  and  _172
REMARK   75  A    between atoms: _172  and  _173
REMARK   76  A    between atoms: _175  and  _177
REMARK   77  A    between atoms: _177  and  _178
REMARK   78  A    between atoms: _177  and  _180
REMARK   79  A    between atoms: _180  and  _181
REMARK   80  A    between atoms: _184  and  _186
REMARK   81  A    between atoms: _186  and  _187
REMARK   82  A    between atoms: _186  and  _189
REMARK   83  A    between atoms: _189  and  _190
REMARK   84  A    between atoms: _193  and  _195
REMARK   85  A    between atoms: _195  and  _196
REMARK   86  A    between atoms: _195  and  _198
REMARK   87  A    between atoms: _198  and  _199
REMARK   88  A    between atoms: _199  and  _200
REMARK   89  A    between atoms: _203  and  _205
REMARK   90  A    between atoms: _205  and  _206
REMARK   91  A    between atoms: _205  and  _208
REMARK   92  A    between atoms: _211  and  _213
REMARK   93  A    between atoms: _213  and  _214
REMARK   94  A    between atoms: _213  and  _216
REMARK   95  A    between atoms: _216  and  _217
REMARK   96  A    between atoms: _217  and  _218
REMARK   97  A    between atoms: _223  and  _225
REMARK   98  A    between atoms: _225  and  _226
REMARK   99  A    between atoms: _225  and  _228
REMARK  100  A    between atoms: _228  and  _229
REMARK  101  A    between atoms: _232  and  _234
REMARK  102  A    between atoms: _234  and  _235
REMARK  103  A    between atoms: _234  and  _237
REMARK  104  A    between atoms: _237  and  _238
REMARK  105  A    between atoms: _238  and  _239
REMARK  106  A    between atoms: _239  and  _240
REMARK  107  A    between atoms: _240  and  _241
REMARK  108  A    between atoms: _245  and  _247
REMARK  109  A    between atoms: _247  and  _248
REMARK  110  A    between atoms: _247  and  _250
REMARK  111  A    between atoms: _250  and  _251
REMARK  112  A    between atoms: _251  and  _252
REMARK  113  A    between atoms: _254  and  _256
REMARK  114  A    between atoms: _256  and  _257
REMARK  115  A    between atoms: _256  and  _259
REMARK  116  A    between atoms: _259  and  _260
REMARK  117  A    between atoms: _260  and  _261
REMARK  118  A    between atoms: _261  and  _262
REMARK  119  A    between atoms: _262  and  _263
REMARK  120  A    between atoms: _267  and  _269
REMARK  121  A    between atoms: _269  and  _270
REMARK  122  A    between atoms: _269  and  _272
REMARK  123  A    between atoms: _272  and  _273
REMARK  124  A    between atoms: _276  and  _278
REMARK  125  A    between atoms: _278  and  _279
REMARK  126  A    between atoms: _278  and  _281
REMARK  127  A    between atoms: _281  and  _282
REMARK  128  A    between atoms: _287  and  _288
REMARK  129  A    between atoms: _290  and  _292
REMARK  130  A    between atoms: _292  and  _293
REMARK  131  A    between atoms: _292  and  _295
REMARK  132  A    between atoms: _295  and  _296
REMARK  133  A    between atoms: _296  and  _297
REMARK  134  A    between atoms: _300  and  _302
REMARK  135  A    between atoms: _302  and  _303
REMARK  136  A    between atoms: _302  and  _305
REMARK  137  A    between atoms: _305  and  _306
REMARK  138  A    between atoms: _312  and  _314
REMARK  139  A    between atoms: _314  and  _315
REMARK  140  A    between atoms: _314  and  _317
REMARK  141  A    between atoms: _317  and  _318
REMARK  142  A    between atoms: _324  and  _326
REMARK  143  A    between atoms: _326  and  _327
REMARK  144  A    between atoms: _326  and  _329
REMARK  145  A    between atoms: _329  and  _330
REMARK  146  A    between atoms: _336  and  _338
REMARK  147  A    between atoms: _338  and  _339
REMARK  148  A    between atoms: _338  and  _341
REMARK  149  A    between atoms: _341  and  _342
REMARK  150  A    between atoms: _347  and  _348
REMARK  151  A    between atoms: _350  and  _352
REMARK  152  A    between atoms: _352  and  _353
REMARK  153  A    between atoms: _352  and  _355
REMARK  154  A    between atoms: _355  and  _356
REMARK  155  A    between atoms: _359  and  _361
REMARK  156  A    between atoms: _361  and  _362
REMARK  157  A    between atoms: _361  and  _364
REMARK  158  A    between atoms: _367  and  _369
REMARK  159  A    between atoms: _369  and  _370
REMARK  160  A    between atoms: _372  and  _374
REMARK  161  A    between atoms: _374  and  _375
REMARK  162  A    between atoms: _374  and  _377
REMARK  163  A    between atoms: _377  and  _378
REMARK  164  A    between atoms: _378  and  _379
REMARK  165  A    between atoms: _382  and  _384
REMARK  166  A    between atoms: _384  and  _385
REMARK  167  A    between atoms: _384  and  _387
REMARK  168  A    between atoms: _390  and  _392
REMARK  169  A    between atoms: _392  and  _393
REMARK  170  A    between atoms: _392  and  _395
REMARK  171  A    between atoms: _395  and  _396
REMARK  172  A    between atoms: _401  and  _402
REMARK  173  A    between atoms: _404  and  _406
REMARK  174  A    between atoms: _406  and  _407
REMARK  175  A    between atoms: _406  and  _409
REMARK  176  A    between atoms: _409  and  _410
REMARK  177  A    between atoms: _413  and  _415
REMARK  178  A    between atoms: _415  and  _416
REMARK  179  A    between atoms: _418  and  _420
REMARK  180  A    between atoms: _420  and  _421
REMARK  181  A    between atoms: _423  and  _425
REMARK  182  A    between atoms: _425  and  _426
REMARK  183  A    between atoms: _425  and  _428
REMARK  184  A    between atoms: _428  and  _429
REMARK  185  A    between atoms: _429  and  _430
REMARK  186  A    between atoms: _433  and  _435
REMARK  187  A    between atoms: _435  and  _436
REMARK  188  A    between atoms: _435  and  _438
REMARK  189  A    between atoms: _438  and  _439
REMARK  190  A    between atoms: _442  and  _444
REMARK  191  A    between atoms: _444  and  _445
REMARK  192  A    between atoms: _444  and  _447
REMARK  193  A    between atoms: _450  and  _452
REMARK  194  A    between atoms: _452  and  _453
REMARK  195  A    between atoms: _452  and  _455
REMARK  196  A    between atoms: _455  and  _456
REMARK  197  A    between atoms: _456  and  _457
REMARK  198  A    between atoms: _460  and  _462
REMARK  199  A    between atoms: _462  and  _463
REMARK  200  A    between atoms: _462  and  _465
REMARK  201  A    between atoms: _465  and  _466
REMARK  202  A    between atoms: _471  and  _473
REMARK  203  A    between atoms: _473  and  _474
REMARK  204  A    between atoms: _473  and  _476
REMARK  205  A    between atoms: _476  and  _477
REMARK  206  A    between atoms: _480  and  _482
REMARK  207  A    between atoms: _482  and  _483
REMARK  208  A    between atoms: _482  and  _485
REMARK  209  A    between atoms: _485  and  _486
REMARK  210  A    between atoms: _489  and  _491
REMARK  211  A    between atoms: _491  and  _492
REMARK  212  A    between atoms: _491  and  _494
REMARK  213  A    between atoms: _494  and  _495
REMARK  214  A    between atoms: _498  and  _500
REMARK  215  A    between atoms: _500  and  _501
REMARK  216  A    between atoms: _500  and  _503
REMARK  217  A    between atoms: _503  and  _504
REMARK  218  A    between atoms: _504  and  _505
REMARK  219  A    between atoms: _508  and  _510
REMARK  220  A    between atoms: _510  and  _511
REMARK  221  A    between atoms: _510  and  _513
REMARK  222  A    between atoms: _513  and  _514
REMARK  223  A    between atoms: _514  and  _515
REMARK  224  A    between atoms: _515  and  _516
REMARK  225  A    between atoms: _525  and  _527
REMARK  226  A    between atoms: _527  and  _528
REMARK  227  A    between atoms: _527  and  _530
REMARK  228  A    between atoms: _530  and  _531
REMARK  229  A    between atoms: _534  and  _536
REMARK  230  A    between atoms: _536  and  _537
REMARK  231  A    between atoms: _536  and  _539
REMARK  232  A    between atoms: _539  and  _540
REMARK  233  A    between atoms: _543  and  _545
REMARK  234  A    between atoms: _545  and  _546
REMARK  235  A    between atoms: _545  and  _548
REMARK  236  A    between atoms: _548  and  _549
REMARK  237  A    between atoms: _552  and  _554
REMARK  238  A    between atoms: _554  and  _555
REMARK  239  A    between atoms: _554  and  _557
REMARK  240  A    between atoms: _557  and  _558
REMARK  241  A    between atoms: _564  and  _566
REMARK  242  A    between atoms: _566  and  _567
REMARK  243  A    between atoms: _569  and  _571
REMARK  244  A    between atoms: _571  and  _572
REMARK  245  A    between atoms: _571  and  _574
REMARK  246  A    between atoms: _574  and  _575
REMARK  247  A    between atoms: _578  and  _580
REMARK  248  A    between atoms: _580  and  _581
REMARK  249  A    between atoms: _580  and  _583
REMARK  250  A    between atoms: _583  and  _584
REMARK  251  A    between atoms: _586  and  _588
REMARK  252  A    between atoms: _588  and  _589
REMARK  253  A    between atoms: _588  and  _591
REMARK  254  A    between atoms: _591  and  _592
REMARK  255  A    between atoms: _595  and  _597
REMARK  256  A    between atoms: _597  and  _598
REMARK  257  A    between atoms: _597  and  _600
REMARK  258  A    between atoms: _600  and  _601
REMARK  259  A    between atoms: _606  and  _608
REMARK  260  A    between atoms: _608  and  _609
REMARK  261  A    between atoms: _608  and  _611
REMARK  262  A    between atoms: _611  and  _612
REMARK  263  A    between atoms: _618  and  _620
REMARK  264  A    between atoms: _620  and  _621
REMARK  265  A    between atoms: _620  and  _623
REMARK  266  A    between atoms: _623  and  _624
REMARK  267  A    between atoms: _624  and  _625
REMARK  268  A    between atoms: _625  and  _626
REMARK  269  A    between atoms: _626  and  _627
REMARK                            x       y       z     vdW  Elec       q    Type
REMARK                         _______ _______ _______ _____ _____    ______ ____
ROOT
ATOM      1  CA  LEU A   2      -3.235  17.514  70.092  0.00  0.00    +0.149 C 
ENDROOT
BRANCH   1   3
ATOM      2  C   SER A   1      -5.580  17.302  69.479  0.00  0.00    +0.241 C 
ATOM      3  N   LEU A   2      -4.629  17.901  70.189  0.00  0.00    -0.297 N 
ATOM      4  H   LEU A   2      -4.893  18.672  70.835  0.00  0.00    +0.150 HD
ATOM      5  O   SER A   1      -5.343  16.408  68.664  0.00  0.00    -0.274 OA
BRANCH   2   6
ATOM      6  CA  SER A   1      -7.020  17.790  69.712  0.00  0.00    +0.174 C 
BRANCH   6   7
ATOM      7  N   SER A   1      -7.316  18.092  71.117  0.00  0.00    -0.236 NA
ATOM      8  H   SER A   1      -7.493  19.081  71.384  0.00  0.00    +0.142 HD
ENDBRANCH   6   7
BRANCH   6   9
ATOM      9  CB  SER A   1      -7.298  19.029  68.854  0.00  0.00    +0.163 C 
BRANCH   9  10
ATOM     10  OG  SER A   1      -6.791  18.876  67.550  0.00  0.00    -0.380 OA
ATOM     11  H   SER A   1      -7.219  18.094  67.120  0.00  0.00    +0.211 HD
ENDBRANCH   9  10
ENDBRANCH   6   9
ENDBRANCH   2   6
ENDBRANCH   1   3
BRANCH   1  12
ATOM     12  C   LEU A   2      -3.032  16.095  70.618  0.00  0.00    +0.241 C 
ATOM     13  N   LEU A   3      -3.635  15.784  71.768  0.00  0.00    -0.298 N 
ATOM     14  H   LEU A   3      -4.217  16.502  72.244  0.00  0.00    +0.150 HD
ATOM     15  O   LEU A   2      -2.325  15.312  69.994  0.00  0.00    -0.273 OA
BRANCH  13  16
ATOM     16  CA  LEU A   3      -3.499  14.457  72.378  0.00  0.00    +0.137 C 
BRANCH  16  17
ATOM     17  C   LEU A   3      -4.013  13.360  71.452  0.00  0.00    +0.227 C 
ATOM     18  O   LEU A   3      -3.372  12.303  71.304  0.00  0.00    -0.286 OA
ENDBRANCH  16  17
BRANCH  16  19
ATOM     19  CB  LEU A   3      -4.204  14.398  73.740  0.00  0.00    +0.028 C 
BRANCH  19  20
ATOM     20  CG  LEU A   3      -3.502  15.192  74.853  0.00  0.00    +0.002 C 
ATOM     21  CD2 LEU A   3      -4.336  15.198  76.119  0.00  0.00    +0.000 C 
ATOM     22  CD1 LEU A   3      -2.085  14.678  75.135  0.00  0.00    +0.000 C 
ENDBRANCH  19  20
ENDBRANCH  16  19
ENDBRANCH  13  16
ENDBRANCH   1  12
BRANCH   1  23
ATOM     23  CB  LEU A   2      -2.340  18.490  70.875  0.00  0.00    +0.029 C 
BRANCH  23  24
ATOM     24  CG  LEU A   2      -0.852  18.165  70.941  0.00  0.00    +0.002 C 
ATOM     25  CD2 LEU A   2      -0.115  19.313  71.606  0.00  0.00    +0.000 C 
ATOM     26  CD1 LEU A   2      -0.276  17.870  69.562  0.00  0.00    +0.000 C 
ENDBRANCH  23  24
ENDBRANCH   1  23
TORSDOF 12
REMARK  Name = ../refined-set-2016/3v51/3v51_pocket.pdb
REMARK  269 active torsions:
REMARK  status: ('A' for Active; 'I' for Inactive)
REMARK    1  A    between atoms: _1  and  _3
REMARK    2  A    between atoms: _3  and  _4
REMARK    3  A    between atoms: _3  and  _6
REMARK    4  A    between atoms: _6  and  _7
REMARK    5  A    between atoms: _7  and  _8
REMARK    6  A    between atoms: _8  and  _9
REMARK    7  A    between atoms: _18  and  _20
REMARK    8  A    between atoms: _20  and  _21
REMARK    9  A    between atoms: _20  and  _23
REMARK   10  A    between atoms: _26  and  _28
REMARK   11  A    between atoms: _28  and  _29
REMARK   12  A    between atoms: _28  and  _31
REMARK   13  A    between atoms: _31  and  _32
REMARK   14  A    between atoms: _35  and  _37
REMARK   15  A    between atoms: _37  and  _38
REMARK   16  A    between atoms: _40  and  _42
REMARK   17  A    between atoms: _42  and  _43
REMARK   18  A    between atoms: _42  and  _45
REMARK   19  A    between atoms: _45  and  _46
REMARK   20  A    between atoms: _46  and  _47
REMARK   21  A    between atoms: _47  and  _48
REMARK   22  A    between atoms: _48  and  _49
REMARK   23  A    between atoms: _53  and  _55
REMARK   24  A    between atoms: _55  and  _56
REMARK   25  A    between atoms: _58  and  _60
REMARK   26  A    between atoms: _60  and  _61
REMARK   27  A    between atoms: _60  and  _63
REMARK   28  A    between atoms: _63  and  _64
REMARK   29  A    between atoms: _68  and  _69
REMARK   30  A    between atoms: _71  and  _73
REMARK   31  A    between atoms: _73  and  _74
REMARK   32  A    between atoms: _73  and  _76
REMARK   33  A    between atoms: _76  and  _77
REMARK   34  A    between atoms: _77  and  _78
REMARK   35  A    between atoms: _81  and  _83
REMARK   36  A    between atoms: _83  and  _84
REMARK   37  A    between atoms: _83  and  _86
REMARK   38  A    between atoms: _89  and  _91
REMARK   39  A    between atoms: _91  and  _92
REMARK   40  A    between atoms: _91  and  _94
REMARK   41  A    between atoms: _94  and  _95
REMARK   42  A    between atoms: _98  and  _100
REMARK   43  A    between atoms: _100  and  _101
REMARK   44  A    between atoms: _100  and  _103
REMARK   45  A    between atoms: _103  and  _104
REMARK   46  A    between atoms: _107  and  _109
REMARK   47  A    between atoms: _109  and  _110
REMARK   48  A    between atoms: _109  and  _112
REMARK   49  A    between atoms: _114  and  _116
REMARK   50  A    between atoms: _116  and  _117
REMARK   51  A    between atoms: _120  and  _122
REMARK   52  A    between atoms: _122  and  _123
REMARK   53  A    between atoms: _122  and  _125
REMARK   54  A    between atoms: _128  and  _130
REMARK   55  A    between atoms: _130  and  _131
REMARK   56  A    between atoms: _130  and  _133
REMARK   57  A    between atoms: _133  and  _134
REMARK   58  A    between atoms: _134  and  _135
REMARK   59  A    between atoms: _135  and  _136
REMARK   60  A    between atoms: _136  and  _137
REMARK   61  A    between atoms: _141  and  _143
REMARK   62  A    between atoms: _143  and  _144
REMARK   63  A    between atoms: _143  and  _146
REMARK   64  A    between atoms: _149  and  _151
REMARK   65  A    between atoms: _151  and  _152
REMARK   66  A    between atoms: _151  and  _154
REMARK   67  A    between atoms: _154  and  _155
REMARK   68  A    between atoms: _158  and  _160
REMARK   69  A    between atoms: _160  and  _161
REMARK   70  A    between atoms: _160  and  _163
REMARK   71  A    between atoms: _163  and  _164
REMARK   72  A    between atoms: _167  and  _169
REMARK   73  A    between atoms: _169  and  _170
REMARK   74  A    between atoms: _169  and  _172
REMARK   75  A    between atoms: _172  and  _173
REMARK   76  A    between atoms: _175  and  _177
REMARK   77  A    between atoms: _177  and  _178
REMARK   78  A    between atoms: _177  and  _180
REMARK   79  A    between atoms: _180  and  _181
REMARK   80  A    between atoms: _184  and  _186
REMARK   81  A    between atoms: _186  and  _187
REMARK   82  A    between atoms: _186  and  _189
REMARK   83  A    between atoms: _189  and  _190
REMARK   84  A    between atoms: _193  and  _195
REMARK   85  A    between atoms: _195  and  _196
REMARK   86  A    between atoms: _195  and  _198
REMARK   87  A    between atoms: _198  and  _199
REMARK   88  A    between atoms: _199  and  _200
REMARK   89  A    between atoms: _203  and  _205
REMARK   90  A    between atoms: _205  and  _206
REMARK   91  A    between atoms: _205  and  _208
REMARK   92  A    between atoms: _211  and  _213
REMARK   93  A    between atoms: _213  and  _214
REMARK   94  A    between atoms: _213  and  _216
REMARK   95  A    between atoms: _216  and  _217
REMARK   96  A    between atoms: _217  and  _218
REMARK   97  A    between atoms: _223  and  _225
REMARK   98  A    between atoms: _225  and  _226
REMARK   99  A    between atoms: _225  and  _228
REMARK  100  A    between atoms: _228  and  _229
REMARK  101  A    between atoms: _232  and  _234
REMARK  102  A    between atoms: _234  and  _235
REMARK  103  A    between atoms: _234  and  _237
REMARK  104  A    between atoms: _237  and  _238
REMARK  105  A    between atoms: _238  and  _239
REMARK  106  A    between atoms: _239  and  _240
REMARK  107  A    between atoms: _240  and  _241
REMARK  108  A    between atoms: _245  and  _247
REMARK  109  A    between atoms: _247  and  _248
REMARK  110  A    between atoms: _247  and  _250
REMARK  111  A    between atoms: _250  and  _251
REMARK  112  A    between atoms: _251  and  _252
REMARK  113  A    between atoms: _254  and  _256
REMARK  114  A    between atoms: _256  and  _257
REMARK  115  A    between atoms: _256  and  _259
REMARK  116  A    between atoms: _259  and  _260
REMARK  117  A    between atoms: _260  and  _261
REMARK  118  A    between atoms: _261  and  _262
REMARK  119  A    between atoms: _262  and  _263
REMARK  120  A    between atoms: _267  and  _269
REMARK  121  A    between atoms: _269  and  _270
REMARK  122  A    between atoms: _269  and  _272
REMARK  123  A    between atoms: _272  and  _273
REMARK  124  A    between atoms: _276  and  _278
REMARK  125  A    between atoms: _278  and  _279
REMARK  126  A    between atoms: _278  and  _281
REMARK  127  A    between atoms: _281  and  _282
REMARK  128  A    between atoms: _287  and  _288
REMARK  129  A    between atoms: _290  and  _292
REMARK  130  A    between atoms: _292  and  _293
REMARK  131  A    between atoms: _292  and  _295
REMARK  132  A    between atoms: _295  and  _296
REMARK  133  A    between atoms: _296  and  _297
REMARK  134  A    between atoms: _300  and  _302
REMARK  135  A    between atoms: _302  and  _303
REMARK  136  A    between atoms: _302  and  _305
REMARK  137  A    between atoms: _305  and  _306
REMARK  138  A    between atoms: _312  and  _314
REMARK  139  A    between atoms: _314  and  _315
REMARK  140  A    between atoms: _314  and  _317
REMARK  141  A    between atoms: _317  and  _318
REMARK  142  A    between atoms: _324  and  _326
REMARK  143  A    between atoms: _326  and  _327
REMARK  144  A    between atoms: _326  and  _329
REMARK  145  A    between atoms: _329  and  _330
REMARK  146  A    between atoms: _336  and  _338
REMARK  147  A    between atoms: _338  and  _339
REMARK  148  A    between atoms: _338  and  _341
REMARK  149  A    between atoms: _341  and  _342
REMARK  150  A    between atoms: _347  and  _348
REMARK  151  A    between atoms: _350  and  _352
REMARK  152  A    between atoms: _352  and  _353
REMARK  153  A    between atoms: _352  and  _355
REMARK  154  A    between atoms: _355  and  _356
REMARK  155  A    between atoms: _359  and  _361
REMARK  156  A    between atoms: _361  and  _362
REMARK  157  A    between atoms: _361  and  _364
REMARK  158  A    between atoms: _367  and  _369
REMARK  159  A    between atoms: _369  and  _370
REMARK  160  A    between atoms: _372  and  _374
REMARK  161  A    between atoms: _374  and  _375
REMARK  162  A    between atoms: _374  and  _377
REMARK  163  A    between atoms: _377  and  _378
REMARK  164  A    between atoms: _378  and  _379
REMARK  165  A    between atoms: _382  and  _384
REMARK  166  A    between atoms: _384  and  _385
REMARK  167  A    between atoms: _384  and  _387
REMARK  168  A    between atoms: _390  and  _392
REMARK  169  A    between atoms: _392  and  _393
REMARK  170  A    between atoms: _392  and  _395
REMARK  171  A    between atoms: _395  and  _396
REMARK  172  A    between atoms: _401  and  _402
REMARK  173  A    between atoms: _404  and  _406
REMARK  174  A    between atoms: _406  and  _407
REMARK  175  A    between atoms: _406  and  _409
REMARK  176  A    between atoms: _409  and  _410
REMARK  177  A    between atoms: _413  and  _415
REMARK  178  A    between atoms: _415  and  _416
REMARK  179  A    between atoms: _418  and  _420
REMARK  180  A    between atoms: _420  and  _421
REMARK  181  A    between atoms: _423  and  _425
REMARK  182  A    between atoms: _425  and  _426
REMARK  183  A    between atoms: _425  and  _428
REMARK  184  A    between atoms: _428  and  _429
REMARK  185  A    between atoms: _429  and  _430
REMARK  186  A    between atoms: _433  and  _435
REMARK  187  A    between atoms: _435  and  _436
REMARK  188  A    between atoms: _435  and  _438
REMARK  189  A    between atoms: _438  and  _439
REMARK  190  A    between atoms: _442  and  _444
REMARK  191  A    between atoms: _444  and  _445
REMARK  192  A    between atoms: _444  and  _447
REMARK  193  A    between atoms: _450  and  _452
REMARK  194  A    between atoms: _452  and  _453
REMARK  195  A    between atoms: _452  and  _455
REMARK  196  A    between atoms: _455  and  _456
REMARK  197  A    between atoms: _456  and  _457
REMARK  198  A    between atoms: _460  and  _462
REMARK  199  A    between atoms: _462  and  _463
REMARK  200  A    between atoms: _462  and  _465
REMARK  201  A    between atoms: _465  and  _466
REMARK  202  A    between atoms: _471  and  _473
REMARK  203  A    between atoms: _473  and  _474
REMARK  204  A    between atoms: _473  and  _476
REMARK  205  A    between atoms: _476  and  _477
REMARK  206  A    between atoms: _480  and  _482
REMARK  207  A    between atoms: _482  and  _483
REMARK  208  A    between atoms: _482  and  _485
REMARK  209  A    between atoms: _485  and  _486
REMARK  210  A    between atoms: _489  and  _491
REMARK  211  A    between atoms: _491  and  _492
REMARK  212  A    between atoms: _491  and  _494
REMARK  213  A    between atoms: _494  and  _495
REMARK  214  A    between atoms: _498  and  _500
REMARK  215  A    between atoms: _500  and  _501
REMARK  216  A    between atoms: _500  and  _503
REMARK  217  A    between atoms: _503  and  _504
REMARK  218  A    between atoms: _504  and  _505
REMARK  219  A    between atoms: _508  and  _510
REMARK  220  A    between atoms: _510  and  _511
REMARK  221  A    between atoms: _510  and  _513
REMARK  222  A    between atoms: _513  and  _514
REMARK  223  A    between atoms: _514  and  _515
REMARK  224  A    between atoms: _515  and  _516
REMARK  225  A    between atoms: _525  and  _527
REMARK  226  A    between atoms: _527  and  _528
REMARK  227  A    between atoms: _527  and  _530
REMARK  228  A    between atoms: _530  and  _531
REMARK  229  A    between atoms: _534  and  _536
REMARK  230  A    between atoms: _536  and  _537
REMARK  231  A    between atoms: _536  and  _539
REMARK  232  A    between atoms: _539  and  _540
REMARK  233  A    between atoms: _543  and  _545
REMARK  234  A    between atoms: _545  and  _546
REMARK  235  A    between atoms: _545  and  _548
REMARK  236  A    between atoms: _548  and  _549
REMARK  237  A    between atoms: _552  and  _554
REMARK  238  A    between atoms: _554  and  _555
REMARK  239  A    between atoms: _554  and  _557
REMARK  240  A    between atoms: _557  and  _558
REMARK  241  A    between atoms: _564  and  _566
REMARK  242  A    between atoms: _566  and  _567
REMARK  243  A    between atoms: _569  and  _571
REMARK  244  A    between atoms: _571  and  _572
REMARK  245  A    between atoms: _571  and  _574
REMARK  246  A    between atoms: _574  and  _575
REMARK  247  A    between atoms: _578  and  _580
REMARK  248  A    between atoms: _580  and  _581
REMARK  249  A    between atoms: _580  and  _583
REMARK  250  A    between atoms: _583  and  _584
REMARK  251  A    between atoms: _586  and  _588
REMARK  252  A    between atoms: _588  and  _589
REMARK  253  A    between atoms: _588  and  _591
REMARK  254  A    between atoms: _591  and  _592
REMARK  255  A    between atoms: _595  and  _597
REMARK  256  A    between atoms: _597  and  _598
REMARK  257  A    between atoms: _597  and  _600
REMARK  258  A    between atoms: _600  and  _601
REMARK  259  A    between atoms: _606  and  _608
REMARK  260  A    between atoms: _608  and  _609
REMARK  261  A    between atoms: _608  and  _611
REMARK  262  A    between atoms: _611  and  _612
REMARK  263  A    between atoms: _618  and  _620
REMARK  264  A    between atoms: _620  and  _621
REMARK  265  A    between atoms: _620  and  _623
REMARK  266  A    between atoms: _623  and  _624
REMARK  267  A    between atoms: _624  and  _625
REMARK  268  A    between atoms: _625  and  _626
REMARK  269  A    between atoms: _626  and  _627
REMARK                            x       y       z     vdW  Elec       q    Type
REMARK                         _______ _______ _______ _____ _____    ______ ____
ROOT
ATOM      1  CA  VAL A   2      -0.435  12.028  69.139  0.00  0.00    +0.148 C 
ENDROOT
BRANCH   1   3
ATOM      2  C   GLU A   1      -2.113  12.581  67.442  0.00  0.00    +0.238 C 
ATOM      3  N   VAL A   2      -1.549  12.831  68.626  0.00  0.00    -0.297 N 
ATOM      4  H   VAL A   2      -1.911  13.618  69.201  0.00  0.00    +0.150 HD
ATOM      5  O   GLU A   1      -1.709  11.716  66.674  0.00  0.00    -0.274 OA
BRANCH   2   6
ATOM      6  CA  GLU A   1      -3.314  13.432  67.055  0.00  0.00    +0.145 C 
BRANCH   6   7
ATOM      7  N   GLU A   1      -4.284  13.549  68.140  0.00  0.00    -0.238 NA
ATOM      8  H   GLU A   1      -4.506  14.491  68.522  0.00  0.00    +0.142 HD
ENDBRANCH   6   7
BRANCH   6   9
ATOM      9  CB  GLU A   1      -2.814  14.799  66.590  0.00  0.00    +0.038 C 
BRANCH   9  10
ATOM     10  CG  GLU A   1      -2.216  14.774  65.187  0.00  0.00    +0.116 C 
BRANCH  10  11
ATOM     11  CD  GLU A   1      -3.292  14.702  64.115  0.00  0.00    +0.365 C 
ATOM     12  OE2 GLU A   1      -3.851  15.763  63.763  0.00  0.00    -0.246 OA
ATOM     13  OE1 GLU A   1      -3.593  13.582  63.643  0.00  0.00    -0.246 OA
ENDBRANCH  10  11
ENDBRANCH   9  10
ENDBRANCH   6   9
ENDBRANCH   2   6
ENDBRANCH   1   3
BRANCH   1  14
ATOM     14  C   VAL A   2      -0.785  10.544  69.194  0.00  0.00    +0.241 C 
ATOM     15  N   GLN A   3      -1.961  10.250  69.699  0.00  0.00    -0.298 N 
ATOM     16  H   GLN A   3      -2.604  11.018  69.979  0.00  0.00    +0.150 HD
ATOM     17  O   VAL A   2      -0.010   9.677  68.798  0.00  0.00    -0.273 OA
BRANCH  15  18
ATOM     18  CA  GLN A   3      -2.378   8.873  69.873  0.00  0.00    +0.137 C 
BRANCH  18  19
ATOM     19  C   GLN A   3      -2.514   8.179  68.503  0.00  0.00    +0.227 C 
ATOM     20  O   GLN A   3      -2.110   7.017  68.345  0.00  0.00    -0.286 OA
ENDBRANCH  18  19
BRANCH  18  21
ATOM     21  CB  GLN A   3      -3.652   8.855  70.710  0.00  0.00    +0.037 C 
BRANCH  21  22
ATOM     22  CG  GLN A   3      -4.397   7.550  70.749  0.00  0.00    +0.087 C 
BRANCH  22  23
ATOM     23  CD  GLN A   3      -3.674   6.467  71.499  0.00  0.00    +0.219 C 
ATOM     24  OE1 GLN A   3      -2.843   6.725  72.385  0.00  0.00    -0.275 OA
ATOM     25  NE2 GLN A   3      -4.011   5.228  71.169  0.00  0.00    -0.329 N 
ATOM     26 HE21 GLN A   3      -3.574   4.422  71.660  0.00  0.00    +0.145 HD
ATOM     27 HE22 GLN A   3      -4.713   5.062  70.420  0.00  0.00    +0.145 HD
ENDBRANCH  22  23
ENDBRANCH  21  22
ENDBRANCH  18  21
ENDBRANCH  15  18
ENDBRANCH   1  14
BRANCH   1  28
ATOM     28  CB  VAL A   2      -0.027  12.505  70.538  0.00  0.00    +0.027 C 
ATOM     29  CG2 VAL A   2       0.938  11.524  71.196  0.00  0.00    +0.002 C 
ATOM     30  CG1 VAL A   2       0.579  13.899  70.425  0.00  0.00    +0.002 C 
ENDBRANCH   1  28
TORSDOF 13
REMARK  Name = ../refined-set-2016/3v51/3v51_pocket.pdb
REMARK  269 active torsions:
REMARK  status: ('A' for Active; 'I' for Inactive)
REMARK    1  A    between atoms: _1  and  _3
REMARK    2  A    between atoms: _3  and  _4
REMARK    3  A    between atoms: _3  and  _6
REMARK    4  A    between atoms: _6  and  _7
REMARK    5  A    between atoms: _7  and  _8
REMARK    6  A    between atoms: _8  and  _9
REMARK    7  A    between atoms: _18  and  _20
REMARK    8  A    between atoms: _20  and  _21
REMARK    9  A    between atoms: _20  and  _23
REMARK   10  A    between atoms: _26  and  _28
REMARK   11  A    between atoms: _28  and  _29
REMARK   12  A    between atoms: _28  and  _31
REMARK   13  A    between atoms: _31  and  _32
REMARK   14  A    between atoms: _35  and  _37
REMARK   15  A    between atoms: _37  and  _38
REMARK   16  A    between atoms: _40  and  _42
REMARK   17  A    between atoms: _42  and  _43
REMARK   18  A    between atoms: _42  and  _45
REMARK   19  A    between atoms: _45  and  _46
REMARK   20  A    between atoms: _46  and  _47
REMARK   21  A    between atoms: _47  and  _48
REMARK   22  A    between atoms: _48  and  _49
REMARK   23  A    between atoms: _53  and  _55
REMARK   24  A    between atoms: _55  and  _56
REMARK   25  A    between atoms: _58  and  _60
REMARK   26  A    between atoms: _60  and  _61
REMARK   27  A    between atoms: _60  and  _63
REMARK   28  A    between atoms: _63  and  _64
REMARK   29  A    between atoms: _68  and  _69
REMARK   30  A    between atoms: _71  and  _73
REMARK   31  A    between atoms: _73  and  _74
REMARK   32  A    between atoms: _73  and  _76
REMARK   33  A    between atoms: _76  and  _77
REMARK   34  A    between atoms: _77  and  _78
REMARK   35  A    between atoms: _81  and  _83
REMARK   36  A    between atoms: _83  and  _84
REMARK   37  A    between atoms: _83  and  _86
REMARK   38  A    between atoms: _89  and  _91
REMARK   39  A    between atoms: _91  and  _92
REMARK   40  A    between atoms: _91  and  _94
REMARK   41  A    between atoms: _94  and  _95
REMARK   42  A    between atoms: _98  and  _100
REMARK   43  A    between atoms: _100  and  _101
REMARK   44  A    between atoms: _100  and  _103
REMARK   45  A    between atoms: _103  and  _104
REMARK   46  A    between atoms: _107  and  _109
REMARK   47  A    between atoms: _109  and  _110
REMARK   48  A    between atoms: _109  and  _112
REMARK   49  A    between atoms: _114  and  _116
REMARK   50  A    between atoms: _116  and  _117
REMARK   51  A    between atoms: _120  and  _122
REMARK   52  A    between atoms: _122  and  _123
REMARK   53  A    between atoms: _122  and  _125
REMARK   54  A    between atoms: _128  and  _130
REMARK   55  A    between atoms: _130  and  _131
REMARK   56  A    between atoms: _130  and  _133
REMARK   57  A    between atoms: _133  and  _134
REMARK   58  A    between atoms: _134  and  _135
REMARK   59  A    between atoms: _135  and  _136
REMARK   60  A    between atoms: _136  and  _137
REMARK   61  A    between atoms: _141  and  _143
REMARK   62  A    between atoms: _143  and  _144
REMARK   63  A    between atoms: _143  and  _146
REMARK   64  A    between atoms: _149  and  _151
REMARK   65  A    between atoms: _151  and  _152
REMARK   66  A    between atoms: _151  and  _154
REMARK   67  A    between atoms: _154  and  _155
REMARK   68  A    between atoms: _158  and  _160
REMARK   69  A    between atoms: _160  and  _161
REMARK   70  A    between atoms: _160  and  _163
REMARK   71  A    between atoms: _163  and  _164
REMARK   72  A    between atoms: _167  and  _169
REMARK   73  A    between atoms: _169  and  _170
REMARK   74  A    between atoms: _169  and  _172
REMARK   75  A    between atoms: _172  and  _173
REMARK   76  A    between atoms: _175  and  _177
REMARK   77  A    between atoms: _177  and  _178
REMARK   78  A    between atoms: _177  and  _180
REMARK   79  A    between atoms: _180  and  _181
REMARK   80  A    between atoms: _184  and  _186
REMARK   81  A    between atoms: _186  and  _187
REMARK   82  A    between atoms: _186  and  _189
REMARK   83  A    between atoms: _189  and  _190
REMARK   84  A    between atoms: _193  and  _195
REMARK   85  A    between atoms: _195  and  _196
REMARK   86  A    between atoms: _195  and  _198
REMARK   87  A    between atoms: _198  and  _199
REMARK   88  A    between atoms: _199  and  _200
REMARK   89  A    between atoms: _203  and  _205
REMARK   90  A    between atoms: _205  and  _206
REMARK   91  A    between atoms: _205  and  _208
REMARK   92  A    between atoms: _211  and  _213
REMARK   93  A    between atoms: _213  and  _214
REMARK   94  A    between atoms: _213  and  _216
REMARK   95  A    between atoms: _216  and  _217
REMARK   96  A    between atoms: _217  and  _218
REMARK   97  A    between atoms: _223  and  _225
REMARK   98  A    between atoms: _225  and  _226
REMARK   99  A    between atoms: _225  and  _228
REMARK  100  A    between atoms: _228  and  _229
REMARK  101  A    between atoms: _232  and  _234
REMARK  102  A    between atoms: _234  and  _235
REMARK  103  A    between atoms: _234  and  _237
REMARK  104  A    between atoms: _237  and  _238
REMARK  105  A    between atoms: _238  and  _239
REMARK  106  A    between atoms: _239  and  _240
REMARK  107  A    between atoms: _240  and  _241
REMARK  108  A    between atoms: _245  and  _247
REMARK  109  A    between atoms: _247  and  _248
REMARK  110  A    between atoms: _247  and  _250
REMARK  111  A    between atoms: _250  and  _251
REMARK  112  A    between atoms: _251  and  _252
REMARK  113  A    between atoms: _254  and  _256
REMARK  114  A    between atoms: _256  and  _257
REMARK  115  A    between atoms: _256  and  _259
REMARK  116  A    between atoms: _259  and  _260
REMARK  117  A    between atoms: _260  and  _261
REMARK  118  A    between atoms: _261  and  _262
REMARK  119  A    between atoms: _262  and  _263
REMARK  120  A    between atoms: _267  and  _269
REMARK  121  A    between atoms: _269  and  _270
REMARK  122  A    between atoms: _269  and  _272
REMARK  123  A    between atoms: _272  and  _273
REMARK  124  A    between atoms: _276  and  _278
REMARK  125  A    between atoms: _278  and  _279
REMARK  126  A    between atoms: _278  and  _281
REMARK  127  A    between atoms: _281  and  _282
REMARK  128  A    between atoms: _287  and  _288
REMARK  129  A    between atoms: _290  and  _292
REMARK  130  A    between atoms: _292  and  _293
REMARK  131  A    between atoms: _292  and  _295
REMARK  132  A    between atoms: _295  and  _296
REMARK  133  A    between atoms: _296  and  _297
REMARK  134  A    between atoms: _300  and  _302
REMARK  135  A    between atoms: _302  and  _303
REMARK  136  A    between atoms: _302  and  _305
REMARK  137  A    between atoms: _305  and  _306
REMARK  138  A    between atoms: _312  and  _314
REMARK  139  A    between atoms: _314  and  _315
REMARK  140  A    between atoms: _314  and  _317
REMARK  141  A    between atoms: _317  and  _318
REMARK  142  A    between atoms: _324  and  _326
REMARK  143  A    between atoms: _326  and  _327
REMARK  144  A    between atoms: _326  and  _329
REMARK  145  A    between atoms: _329  and  _330
REMARK  146  A    between atoms: _336  and  _338
REMARK  147  A    between atoms: _338  and  _339
REMARK  148  A    between atoms: _338  and  _341
REMARK  149  A    between atoms: _341  and  _342
REMARK  150  A    between atoms: _347  and  _348
REMARK  151  A    between atoms: _350  and  _352
REMARK  152  A    between atoms: _352  and  _353
REMARK  153  A    between atoms: _352  and  _355
REMARK  154  A    between atoms: _355  and  _356
REMARK  155  A    between atoms: _359  and  _361
REMARK  156  A    between atoms: _361  and  _362
REMARK  157  A    between atoms: _361  and  _364
REMARK  158  A    between atoms: _367  and  _369
REMARK  159  A    between atoms: _369  and  _370
REMARK  160  A    between atoms: _372  and  _374
REMARK  161  A    between atoms: _374  and  _375
REMARK  162  A    between atoms: _374  and  _377
REMARK  163  A    between atoms: _377  and  _378
REMARK  164  A    between atoms: _378  and  _379
REMARK  165  A    between atoms: _382  and  _384
REMARK  166  A    between atoms: _384  and  _385
REMARK  167  A    between atoms: _384  and  _387
REMARK  168  A    between atoms: _390  and  _392
REMARK  169  A    between atoms: _392  and  _393
REMARK  170  A    between atoms: _392  and  _395
REMARK  171  A    between atoms: _395  and  _396
REMARK  172  A    between atoms: _401  and  _402
REMARK  173  A    between atoms: _404  and  _406
REMARK  174  A    between atoms: _406  and  _407
REMARK  175  A    between atoms: _406  and  _409
REMARK  176  A    between atoms: _409  and  _410
REMARK  177  A    between atoms: _413  and  _415
REMARK  178  A    between atoms: _415  and  _416
REMARK  179  A    between atoms: _418  and  _420
REMARK  180  A    between atoms: _420  and  _421
REMARK  181  A    between atoms: _423  and  _425
REMARK  182  A    between atoms: _425  and  _426
REMARK  183  A    between atoms: _425  and  _428
REMARK  184  A    between atoms: _428  and  _429
REMARK  185  A    between atoms: _429  and  _430
REMARK  186  A    between atoms: _433  and  _435
REMARK  187  A    between atoms: _435  and  _436
REMARK  188  A    between atoms: _435  and  _438
REMARK  189  A    between atoms: _438  and  _439
REMARK  190  A    between atoms: _442  and  _444
REMARK  191  A    between atoms: _444  and  _445
REMARK  192  A    between atoms: _444  and  _447
REMARK  193  A    between atoms: _450  and  _452
REMARK  194  A    between atoms: _452  and  _453
REMARK  195  A    between atoms: _452  and  _455
REMARK  196  A    between atoms: _455  and  _456
REMARK  197  A    between atoms: _456  and  _457
REMARK  198  A    between atoms: _460  and  _462
REMARK  199  A    between atoms: _462  and  _463
REMARK  200  A    between atoms: _462  and  _465
REMARK  201  A    between atoms: _465  and  _466
REMARK  202  A    between atoms: _471  and  _473
REMARK  203  A    between atoms: _473  and  _474
REMARK  204  A    between atoms: _473  and  _476
REMARK  205  A    between atoms: _476  and  _477
REMARK  206  A    between atoms: _480  and  _482
REMARK  207  A    between atoms: _482  and  _483
REMARK  208  A    between atoms: _482  and  _485
REMARK  209  A    between atoms: _485  and  _486
REMARK  210  A    between atoms: _489  and  _491
REMARK  211  A    between atoms: _491  and  _492
REMARK  212  A    between atoms: _491  and  _494
REMARK  213  A    between atoms: _494  and  _495
REMARK  214  A    between atoms: _498  and  _500
REMARK  215  A    between atoms: _500  and  _501
REMARK  216  A    between atoms: _500  and  _503
REMARK  217  A    between atoms: _503  and  _504
REMARK  218  A    between atoms: _504  and  _505
REMARK  219  A    between atoms: _508  and  _510
REMARK  220  A    between atoms: _510  and  _511
REMARK  221  A    between atoms: _510  and  _513
REMARK  222  A    between atoms: _513  and  _514
REMARK  223  A    between atoms: _514  and  _515
REMARK  224  A    between atoms: _515  and  _516
REMARK  225  A    between atoms: _525  and  _527
REMARK  226  A    between atoms: _527  and  _528
REMARK  227  A    between atoms: _527  and  _530
REMARK  228  A    between atoms: _530  and  _531
REMARK  229  A    between atoms: _534  and  _536
REMARK  230  A    between atoms: _536  and  _537
REMARK  231  A    between atoms: _536  and  _539
REMARK  232  A    between atoms: _539  and  _540
REMARK  233  A    between atoms: _543  and  _545
REMARK  234  A    between atoms: _545  and  _546
REMARK  235  A    between atoms: _545  and  _548
REMARK  236  A    between atoms: _548  and  _549
REMARK  237  A    between atoms: _552  and  _554
REMARK  238  A    between atoms: _554  and  _555
REMARK  239  A    between atoms: _554  and  _557
REMARK  240  A    between atoms: _557  and  _558
REMARK  241  A    between atoms: _564  and  _566
REMARK  242  A    between atoms: _566  and  _567
REMARK  243  A    between atoms: _569  and  _571
REMARK  244  A    between atoms: _571  and  _572
REMARK  245  A    between atoms: _571  and  _574
REMARK  246  A    between atoms: _574  and  _575
REMARK  247  A    between atoms: _578  and  _580
REMARK  248  A    between atoms: _580  and  _581
REMARK  249  A    between atoms: _580  and  _583
REMARK  250  A    between atoms: _583  and  _584
REMARK  251  A    between atoms: _586  and  _588
REMARK  252  A    between atoms: _588  and  _589
REMARK  253  A    between atoms: _588  and  _591
REMARK  254  A    between atoms: _591  and  _592
REMARK  255  A    between atoms: _595  and  _597
REMARK  256  A    between atoms: _597  and  _598
REMARK  257  A    between atoms: _597  and  _600
REMARK  258  A    between atoms: _600  and  _601
REMARK  259  A    between atoms: _606  and  _608
REMARK  260  A    between atoms: _608  and  _609
REMARK  261  A    between atoms: _608  and  _611
REMARK  262  A    between atoms: _611  and  _612
REMARK  263  A    between atoms: _618  and  _620
REMARK  264  A    between atoms: _620  and  _621
REMARK  265  A    between atoms: _620  and  _623
REMARK  266  A    between atoms: _623  and  _624
REMARK  267  A    between atoms: _624  and  _625
REMARK  268  A    between atoms: _625  and  _626
REMARK  269  A    between atoms: _626  and  _627
REMARK                            x       y       z     vdW  Elec       q    Type
REMARK                         _______ _______ _______ _____ _____    ______ ____
ROOT
ATOM      1  C   LEU A   1       1.298   7.943  65.588  0.00  0.00    +0.238 C 
ATOM      2  N   LYS A   2       1.166   7.679  66.884  0.00  0.00    -0.298 N 
ATOM      3  H   LYS A   2       0.575   8.302  67.471  0.00  0.00    +0.150 HD
ATOM      4  O   LEU A   1       2.046   7.321  64.846  0.00  0.00    -0.274 OA
ENDROOT
BRANCH   1   5
ATOM      5  CA  LEU A   1       0.482   9.090  65.037  0.00  0.00    +0.145 C 
BRANCH   5   6
ATOM      6  N   LEU A   1      -0.860   9.170  65.609  0.00  0.00    -0.238 NA
ATOM      7  H   LEU A   1      -1.165  10.055  66.063  0.00  0.00    +0.142 HD
ENDBRANCH   5   6
BRANCH   5   8
ATOM      8  CB  LEU A   1       1.271  10.391  65.249  0.00  0.00    +0.026 C 
BRANCH   8   9
ATOM      9  CG  LEU A   1       0.764  11.560  64.406  0.00  0.00    +0.002 C 
ATOM     10  CD2 LEU A   1       1.393  12.865  64.880  0.00  0.00    +0.000 C 
ATOM     11  CD1 LEU A   1       1.060  11.284  62.949  0.00  0.00    +0.000 C 
ENDBRANCH   8   9
ENDBRANCH   5   8
ENDBRANCH   1   5
BRANCH   2  12
ATOM     12  CA  LYS A   2       1.833   6.531  67.505  0.00  0.00    +0.137 C 
BRANCH  12  13
ATOM     13  C   LYS A   2       1.459   5.194  66.909  0.00  0.00    +0.227 C 
ATOM     14  O   LYS A   2       2.241   4.242  66.962  0.00  0.00    -0.286 OA
ENDBRANCH  12  13
BRANCH  12  15
ATOM     15  CB  LYS A   2       1.563   6.506  69.009  0.00  0.00    +0.028 C 
BRANCH  15  16
ATOM     16  CG  LYS A   2       2.529   7.410  69.753  0.00  0.00    -0.000 C 
BRANCH  16  17
ATOM     17  CD  LYS A   2       1.953   8.025  71.007  0.00  0.00    -0.024 C 
BRANCH  17  18
ATOM     18  CE  LYS A   2       2.132   7.174  72.234  0.00  0.00    -0.086 C 
BRANCH  18  19
ATOM     19  NZ  LYS A   2       1.749   8.009  73.413  0.00  0.00    +0.380 N 
ATOM     20  HZ1 LYS A   2       1.861   7.450  74.283  0.00  0.00    -0.089 HD
ATOM     21  HZ2 LYS A   2       2.363   8.847  73.457  0.00  0.00    -0.089 HD
ATOM     22  HZ3 LYS A   2       0.758   8.308  73.317  0.00  0.00    -0.089 HD
ENDBRANCH  18  19
ENDBRANCH  17  18
ENDBRANCH  16  17
ENDBRANCH  15  16
ENDBRANCH  12  15
ENDBRANCH   2  12
TORSDOF 11
REMARK  Name = ../refined-set-2016/3v51/3v51_pocket.pdb
REMARK  269 active torsions:
REMARK  status: ('A' for Active; 'I' for Inactive)
REMARK    1  A    between atoms: _1  and  _3
REMARK    2  A    between atoms: _3  and  _4
REMARK    3  A    between atoms: _3  and  _6
REMARK    4  A    between atoms: _6  and  _7
REMARK    5  A    between atoms: _7  and  _8
REMARK    6  A    between atoms: _8  and  _9
REMARK    7  A    between atoms: _18  and  _20
REMARK    8  A    between atoms: _20  and  _21
REMARK    9  A    between atoms: _20  and  _23
REMARK   10  A    between atoms: _26  and  _28
REMARK   11  A    between atoms: _28  and  _29
REMARK   12  A    between atoms: _28  and  _31
REMARK   13  A    between atoms: _31  and  _32
REMARK   14  A    between atoms: _35  and  _37
REMARK   15  A    between atoms: _37  and  _38
REMARK   16  A    between atoms: _40  and  _42
REMARK   17  A    between atoms: _42  and  _43
REMARK   18  A    between atoms: _42  and  _45
REMARK   19  A    between atoms: _45  and  _46
REMARK   20  A    between atoms: _46  and  _47
REMARK   21  A    between atoms: _47  and  _48
REMARK   22  A    between atoms: _48  and  _49
REMARK   23  A    between atoms: _53  and  _55
REMARK   24  A    between atoms: _55  and  _56
REMARK   25  A    between atoms: _58  and  _60
REMARK   26  A    between atoms: _60  and  _61
REMARK   27  A    between atoms: _60  and  _63
REMARK   28  A    between atoms: _63  and  _64
REMARK   29  A    between atoms: _68  and  _69
REMARK   30  A    between atoms: _71  and  _73
REMARK   31  A    between atoms: _73  and  _74
REMARK   32  A    between atoms: _73  and  _76
REMARK   33  A    between atoms: _76  and  _77
REMARK   34  A    between atoms: _77  and  _78
REMARK   35  A    between atoms: _81  and  _83
REMARK   36  A    between atoms: _83  and  _84
REMARK   37  A    between atoms: _83  and  _86
REMARK   38  A    between atoms: _89  and  _91
REMARK   39  A    between atoms: _91  and  _92
REMARK   40  A    between atoms: _91  and  _94
REMARK   41  A    between atoms: _94  and  _95
REMARK   42  A    between atoms: _98  and  _100
REMARK   43  A    between atoms: _100  and  _101
REMARK   44  A    between atoms: _100  and  _103
REMARK   45  A    between atoms: _103  and  _104
REMARK   46  A    between atoms: _107  and  _109
REMARK   47  A    between atoms: _109  and  _110
REMARK   48  A    between atoms: _109  and  _112
REMARK   49  A    between atoms: _114  and  _116
REMARK   50  A    between atoms: _116  and  _117
REMARK   51  A    between atoms: _120  and  _122
REMARK   52  A    between atoms: _122  and  _123
REMARK   53  A    between atoms: _122  and  _125
REMARK   54  A    between atoms: _128  and  _130
REMARK   55  A    between atoms: _130  and  _131
REMARK   56  A    between atoms: _130  and  _133
REMARK   57  A    between atoms: _133  and  _134
REMARK   58  A    between atoms: _134  and  _135
REMARK   59  A    between atoms: _135  and  _136
REMARK   60  A    between atoms: _136  and  _137
REMARK   61  A    between atoms: _141  and  _143
REMARK   62  A    between atoms: _143  and  _144
REMARK   63  A    between atoms: _143  and  _146
REMARK   64  A    between atoms: _149  and  _151
REMARK   65  A    between atoms: _151  and  _152
REMARK   66  A    between atoms: _151  and  _154
REMARK   67  A    between atoms: _154  and  _155
REMARK   68  A    between atoms: _158  and  _160
REMARK   69  A    between atoms: _160  and  _161
REMARK   70  A    between atoms: _160  and  _163
REMARK   71  A    between atoms: _163  and  _164
REMARK   72  A    between atoms: _167  and  _169
REMARK   73  A    between atoms: _169  and  _170
REMARK   74  A    between atoms: _169  and  _172
REMARK   75  A    between atoms: _172  and  _173
REMARK   76  A    between atoms: _175  and  _177
REMARK   77  A    between atoms: _177  and  _178
REMARK   78  A    between atoms: _177  and  _180
REMARK   79  A    between atoms: _180  and  _181
REMARK   80  A    between atoms: _184  and  _186
REMARK   81  A    between atoms: _186  and  _187
REMARK   82  A    between atoms: _186  and  _189
REMARK   83  A    between atoms: _189  and  _190
REMARK   84  A    between atoms: _193  and  _195
REMARK   85  A    between atoms: _195  and  _196
REMARK   86  A    between atoms: _195  and  _198
REMARK   87  A    between atoms: _198  and  _199
REMARK   88  A    between atoms: _199  and  _200
REMARK   89  A    between atoms: _203  and  _205
REMARK   90  A    between atoms: _205  and  _206
REMARK   91  A    between atoms: _205  and  _208
REMARK   92  A    between atoms: _211  and  _213
REMARK   93  A    between atoms: _213  and  _214
REMARK   94  A    between atoms: _213  and  _216
REMARK   95  A    between atoms: _216  and  _217
REMARK   96  A    between atoms: _217  and  _218
REMARK   97  A    between atoms: _223  and  _225
REMARK   98  A    between atoms: _225  and  _226
REMARK   99  A    between atoms: _225  and  _228
REMARK  100  A    between atoms: _228  and  _229
REMARK  101  A    between atoms: _232  and  _234
REMARK  102  A    between atoms: _234  and  _235
REMARK  103  A    between atoms: _234  and  _237
REMARK  104  A    between atoms: _237  and  _238
REMARK  105  A    between atoms: _238  and  _239
REMARK  106  A    between atoms: _239  and  _240
REMARK  107  A    between atoms: _240  and  _241
REMARK  108  A    between atoms: _245  and  _247
REMARK  109  A    between atoms: _247  and  _248
REMARK  110  A    between atoms: _247  and  _250
REMARK  111  A    between atoms: _250  and  _251
REMARK  112  A    between atoms: _251  and  _252
REMARK  113  A    between atoms: _254  and  _256
REMARK  114  A    between atoms: _256  and  _257
REMARK  115  A    between atoms: _256  and  _259
REMARK  116  A    between atoms: _259  and  _260
REMARK  117  A    between atoms: _260  and  _261
REMARK  118  A    between atoms: _261  and  _262
REMARK  119  A    between atoms: _262  and  _263
REMARK  120  A    between atoms: _267  and  _269
REMARK  121  A    between atoms: _269  and  _270
REMARK  122  A    between atoms: _269  and  _272
REMARK  123  A    between atoms: _272  and  _273
REMARK  124  A    between atoms: _276  and  _278
REMARK  125  A    between atoms: _278  and  _279
REMARK  126  A    between atoms: _278  and  _281
REMARK  127  A    between atoms: _281  and  _282
REMARK  128  A    between atoms: _287  and  _288
REMARK  129  A    between atoms: _290  and  _292
REMARK  130  A    between atoms: _292  and  _293
REMARK  131  A    between atoms: _292  and  _295
REMARK  132  A    between atoms: _295  and  _296
REMARK  133  A    between atoms: _296  and  _297
REMARK  134  A    between atoms: _300  and  _302
REMARK  135  A    between atoms: _302  and  _303
REMARK  136  A    between atoms: _302  and  _305
REMARK  137  A    between atoms: _305  and  _306
REMARK  138  A    between atoms: _312  and  _314
REMARK  139  A    between atoms: _314  and  _315
REMARK  140  A    between atoms: _314  and  _317
REMARK  141  A    between atoms: _317  and  _318
REMARK  142  A    between atoms: _324  and  _326
REMARK  143  A    between atoms: _326  and  _327
REMARK  144  A    between atoms: _326  and  _329
REMARK  145  A    between atoms: _329  and  _330
REMARK  146  A    between atoms: _336  and  _338
REMARK  147  A    between atoms: _338  and  _339
REMARK  148  A    between atoms: _338  and  _341
REMARK  149  A    between atoms: _341  and  _342
REMARK  150  A    between atoms: _347  and  _348
REMARK  151  A    between atoms: _350  and  _352
REMARK  152  A    between atoms: _352  and  _353
REMARK  153  A    between atoms: _352  and  _355
REMARK  154  A    between atoms: _355  and  _356
REMARK  155  A    between atoms: _359  and  _361
REMARK  156  A    between atoms: _361  and  _362
REMARK  157  A    between atoms: _361  and  _364
REMARK  158  A    between atoms: _367  and  _369
REMARK  159  A    between atoms: _369  and  _370
REMARK  160  A    between atoms: _372  and  _374
REMARK  161  A    between atoms: _374  and  _375
REMARK  162  A    between atoms: _374  and  _377
REMARK  163  A    between atoms: _377  and  _378
REMARK  164  A    between atoms: _378  and  _379
REMARK  165  A    between atoms: _382  and  _384
REMARK  166  A    between atoms: _384  and  _385
REMARK  167  A    between atoms: _384  and  _387
REMARK  168  A    between atoms: _390  and  _392
REMARK  169  A    between atoms: _392  and  _393
REMARK  170  A    between atoms: _392  and  _395
REMARK  171  A    between atoms: _395  and  _396
REMARK  172  A    between atoms: _401  and  _402
REMARK  173  A    between atoms: _404  and  _406
REMARK  174  A    between atoms: _406  and  _407
REMARK  175  A    between atoms: _406  and  _409
REMARK  176  A    between atoms: _409  and  _410
REMARK  177  A    between atoms: _413  and  _415
REMARK  178  A    between atoms: _415  and  _416
REMARK  179  A    between atoms: _418  and  _420
REMARK  180  A    between atoms: _420  and  _421
REMARK  181  A    between atoms: _423  and  _425
REMARK  182  A    between atoms: _425  and  _426
REMARK  183  A    between atoms: _425  and  _428
REMARK  184  A    between atoms: _428  and  _429
REMARK  185  A    between atoms: _429  and  _430
REMARK  186  A    between atoms: _433  and  _435
REMARK  187  A    between atoms: _435  and  _436
REMARK  188  A    between atoms: _435  and  _438
REMARK  189  A    between atoms: _438  and  _439
REMARK  190  A    between atoms: _442  and  _444
REMARK  191  A    between atoms: _444  and  _445
REMARK  192  A    between atoms: _444  and  _447
REMARK  193  A    between atoms: _450  and  _452
REMARK  194  A    between atoms: _452  and  _453
REMARK  195  A    between atoms: _452  and  _455
REMARK  196  A    between atoms: _455  and  _456
REMARK  197  A    between atoms: _456  and  _457
REMARK  198  A    between atoms: _460  and  _462
REMARK  199  A    between atoms: _462  and  _463
REMARK  200  A    between atoms: _462  and  _465
REMARK  201  A    between atoms: _465  and  _466
REMARK  202  A    between atoms: _471  and  _473
REMARK  203  A    between atoms: _473  and  _474
REMARK  204  A    between atoms: _473  and  _476
REMARK  205  A    between atoms: _476  and  _477
REMARK  206  A    between atoms: _480  and  _482
REMARK  207  A    between atoms: _482  and  _483
REMARK  208  A    between atoms: _482  and  _485
REMARK  209  A    between atoms: _485  and  _486
REMARK  210  A    between atoms: _489  and  _491
REMARK  211  A    between atoms: _491  and  _492
REMARK  212  A    between atoms: _491  and  _494
REMARK  213  A    between atoms: _494  and  _495
REMARK  214  A    between atoms: _498  and  _500
REMARK  215  A    between atoms: _500  and  _501
REMARK  216  A    between atoms: _500  and  _503
REMARK  217  A    between atoms: _503  and  _504
REMARK  218  A    between atoms: _504  and  _505
REMARK  219  A    between atoms: _508  and  _510
REMARK  220  A    between atoms: _510  and  _511
REMARK  221  A    between atoms: _510  and  _513
REMARK  222  A    between atoms: _513  and  _514
REMARK  223  A    between atoms: _514  and  _515
REMARK  224  A    between atoms: _515  and  _516
REMARK  225  A    between atoms: _525  and  _527
REMARK  226  A    between atoms: _527  and  _528
REMARK  227  A    between atoms: _527  and  _530
REMARK  228  A    between atoms: _530  and  _531
REMARK  229  A    between atoms: _534  and  _536
REMARK  230  A    between atoms: _536  and  _537
REMARK  231  A    between atoms: _536  and  _539
REMARK  232  A    between atoms: _539  and  _540
REMARK  233  A    between atoms: _543  and  _545
REMARK  234  A    between atoms: _545  and  _546
REMARK  235  A    between atoms: _545  and  _548
REMARK  236  A    between atoms: _548  and  _549
REMARK  237  A    between atoms: _552  and  _554
REMARK  238  A    between atoms: _554  and  _555
REMARK  239  A    between atoms: _554  and  _557
REMARK  240  A    between atoms: _557  and  _558
REMARK  241  A    between atoms: _564  and  _566
REMARK  242  A    between atoms: _566  and  _567
REMARK  243  A    between atoms: _569  and  _571
REMARK  244  A    between atoms: _571  and  _572
REMARK  245  A    between atoms: _571  and  _574
REMARK  246  A    between atoms: _574  and  _575
REMARK  247  A    between atoms: _578  and  _580
REMARK  248  A    between atoms: _580  and  _581
REMARK  249  A    between atoms: _580  and  _583
REMARK  250  A    between atoms: _583  and  _584
REMARK  251  A    between atoms: _586  and  _588
REMARK  252  A    between atoms: _588  and  _589
REMARK  253  A    between atoms: _588  and  _591
REMARK  254  A    between atoms: _591  and  _592
REMARK  255  A    between atoms: _595  and  _597
REMARK  256  A    between atoms: _597  and  _598
REMARK  257  A    between atoms: _597  and  _600
REMARK  258  A    between atoms: _600  and  _601
REMARK  259  A    between atoms: _606  and  _608
REMARK  260  A    between atoms: _608  and  _609
REMARK  261  A    between atoms: _608  and  _611
REMARK  262  A    between atoms: _611  and  _612
REMARK  263  A    between atoms: _618  and  _620
REMARK  264  A    between atoms: _620  and  _621
REMARK  265  A    between atoms: _620  and  _623
REMARK  266  A    between atoms: _623  and  _624
REMARK  267  A    between atoms: _624  and  _625
REMARK  268  A    between atoms: _625  and  _626
REMARK  269  A    between atoms: _626  and  _627
REMARK                            x       y       z     vdW  Elec       q    Type
REMARK                         _______ _______ _______ _____ _____    ______ ____
ROOT
ATOM      1  CA  TYR A   4       7.238   6.667  69.897  0.00  0.00    +0.153 C 
ENDROOT
BRANCH   1   3
ATOM      2  C   LEU A   3       6.495   7.494  67.706  0.00  0.00    +0.241 C 
ATOM      3  N   TYR A   4       7.283   7.608  68.779  0.00  0.00    -0.297 N 
ATOM      4  H   TYR A   4       7.957   8.399  68.821  0.00  0.00    +0.150 HD
ATOM      5  O   LEU A   3       5.655   6.601  67.556  0.00  0.00    -0.273 OA
BRANCH   2   6
ATOM      6  CA  LEU A   3       6.668   8.547  66.623  0.00  0.00    +0.149 C 
BRANCH   6   8
ATOM      7  C   LYS A   2       7.993   7.629  64.773  0.00  0.00    +0.241 C 
ATOM      8  N   LEU A   3       6.817   7.830  65.367  0.00  0.00    -0.297 N 
ATOM      9  H   LEU A   3       5.962   7.455  64.909  0.00  0.00    +0.150 HD
ATOM     10  O   LYS A   2       9.051   8.106  65.177  0.00  0.00    -0.273 OA
BRANCH   7  11
ATOM     11  CA  LYS A   2       7.972   6.783  63.505  0.00  0.00    +0.149 C 
BRANCH  11  13
ATOM     12  C   MET A   1       8.214   8.417  61.724  0.00  0.00    +0.238 C 
ATOM     13  N   LYS A   2       8.747   7.465  62.469  0.00  0.00    -0.297 N 
ATOM     14  H   LYS A   2       9.739   7.195  62.315  0.00  0.00    +0.150 HD
ATOM     15  O   MET A   1       7.048   8.757  61.834  0.00  0.00    -0.274 OA
BRANCH  12  16
ATOM     16  CA  MET A   1       9.139   9.095  60.730  0.00  0.00    +0.146 C 
BRANCH  16  17
ATOM     17  N   MET A   1       8.530   9.192  59.387  0.00  0.00    -0.238 NA
ATOM     18  H   MET A   1       8.487  10.112  58.905  0.00  0.00    +0.142 HD
ENDBRANCH  16  17
BRANCH  16  19
ATOM     19  CB  MET A   1       9.513  10.475  61.268  0.00  0.00    +0.038 C 
BRANCH  19  20
ATOM     20  CG  MET A   1      10.384  10.422  62.507  0.00  0.00    +0.060 C 
BRANCH  20  21
ATOM     21  SD  MET A   1      10.086  11.776  63.648  0.00  0.00    -0.139 S 
ATOM     22  CE  MET A   1       8.419  11.351  64.209  0.00  0.00    +0.069 C 
ENDBRANCH  20  21
ENDBRANCH  19  20
ENDBRANCH  16  19
ENDBRANCH  12  16
ENDBRANCH  11  13
BRANCH  11  23
ATOM     23  CB  LYS A   2       8.556   5.377  63.762  0.00  0.00    +0.029 C 
BRANCH  23  24
ATOM     24  CG  LYS A   2       7.743   4.500  64.704  0.00  0.00    +0.000 C 
BRANCH  24  25
ATOM     25  CD  LYS A   2       6.460   3.969  64.075  0.00  0.00    -0.024 C 
BRANCH  25  26
ATOM     26  CE  LYS A   2       5.471   3.509  65.138  0.00  0.00    -0.086 C 
BRANCH  26  27
ATOM     27  NZ  LYS A   2       4.154   3.103  64.570  0.00  0.00    +0.380 N 
ATOM     28  HZ1 LYS A   2       3.524   2.800  65.340  0.00  0.00    -0.089 HD
ATOM     29  HZ2 LYS A   2       3.730   3.910  64.070  0.00  0.00    -0.089 HD
ATOM     30  HZ3 LYS A   2       4.293   2.316  63.904  0.00  0.00    -0.089 HD
ENDBRANCH  26  27
ENDBRANCH  25  26
ENDBRANCH  24  25
ENDBRANCH  23  24
ENDBRANCH  11  23
ENDBRANCH   7  11
ENDBRANCH   6   8
BRANCH   6  31
ATOM     31  CB  LEU A   3       5.430   9.471  66.608  0.00  0.00    +0.029 C 
BRANCH  31  32
ATOM     32  CG  LEU A   3       5.166  10.210  67.940  0.00  0.00    +0.002 C 
ATOM     33  CD2 LEU A   3       6.294  11.195  68.177  0.00  0.00    +0.000 C 
ATOM     34  CD1 LEU A   3       3.792  10.906  67.957  0.00  0.00    +0.000 C 
ENDBRANCH  31  32
ENDBRANCH   6  31
ENDBRANCH   2   6
ENDBRANCH   1   3
BRANCH   1  35
ATOM     35  C   TYR A   4       6.459   7.188  71.105  0.00  0.00    +0.241 C 
ATOM     36  O   TYR A   4       5.628   6.479  71.653  0.00  0.00    -0.273 OA
ATOM     37  N   GLU A   5       6.781   8.397  71.550  0.00  0.00    -0.297 N 
ATOM     38  H   GLU A   5       7.432   8.981  70.987  0.00  0.00    +0.150 HD
BRANCH  37  39
ATOM     39  CA  GLU A   5       6.250   8.942  72.813  0.00  0.00    +0.149 C 
BRANCH  39  40
ATOM     40  C   GLU A   5       6.066  10.445  72.738  0.00  0.00    +0.241 C 
ATOM     41  N   PHE A   6       5.308  10.967  73.696  0.00  0.00    -0.297 N 
ATOM     42  H   PHE A   6       4.909  10.338  74.422  0.00  0.00    +0.150 HD
ATOM     43  O   GLU A   5       6.607  11.134  71.851  0.00  0.00    -0.273 OA
BRANCH  41  44
ATOM     44  CA  PHE A   6       5.020  12.384  73.761  0.00  0.00    +0.153 C 
BRANCH  44  45
ATOM     45  C   PHE A   6       4.941  12.830  75.215  0.00  0.00    +0.241 C 
ATOM     46  O   PHE A   6       4.309  12.174  76.016  0.00  0.00    -0.273 OA
ATOM     47  N   PHE A   7       5.616  13.922  75.559  0.00  0.00    -0.298 N 
ATOM     48  H   PHE A   7       6.183  14.414  74.840  0.00  0.00    +0.150 HD
BRANCH  47  49
ATOM     49  CA  PHE A   7       5.582  14.446  76.913  0.00  0.00    +0.141 C 
BRANCH  49  50
ATOM     50  C   PHE A   7       5.301  15.939  76.848  0.00  0.00    +0.227 C 
ATOM     51  O   PHE A   7       5.606  16.601  75.856  0.00  0.00    -0.286 OA
ENDBRANCH  49  50
BRANCH  49  52
ATOM     52  CB  PHE A   7       6.899  14.205  77.661  0.00  0.00    +0.054 C 
BRANCH  52  53
ATOM     53  CG  PHE A   7       7.258  12.758  77.851  0.00  0.00    -0.020 A 
ATOM     54  CD2 PHE A   7       7.004  12.104  79.065  0.00  0.00    -0.004 A 
ATOM     55  CE2 PHE A   7       7.354  10.775  79.249  0.00  0.00    -0.000 A 
ATOM     56  CZ  PHE A   7       7.971  10.071  78.222  0.00  0.00    -0.000 A 
ATOM     57  CE1 PHE A   7       8.213  10.704  77.007  0.00  0.00    -0.000 A 
ATOM     58  CD1 PHE A   7       7.881  12.043  76.835  0.00  0.00    -0.004 A 
ENDBRANCH  52  53
ENDBRANCH  49  52
ENDBRANCH  47  49
ENDBRANCH  44  45
BRANCH  44  59
ATOM     59  CB  PHE A   6       3.702  12.648  73.058  0.00  0.00    +0.055 C 
BRANCH  59  60
ATOM     60  CG  PHE A   6       3.236  14.063  73.147  0.00  0.00    -0.020 A 
ATOM     61  CD2 PHE A   6       2.356  14.453  74.149  0.00  0.00    -0.004 A 
ATOM     62  CE2 PHE A   6       1.908  15.764  74.227  0.00  0.00    -0.000 A 
ATOM     63  CZ  PHE A   6       2.321  16.685  73.288  0.00  0.00    -0.000 A 
ATOM     64  CE1 PHE A   6       3.185  16.305  72.283  0.00  0.00    -0.000 A 
ATOM     65  CD1 PHE A   6       3.633  14.995  72.209  0.00  0.00    -0.004 A 
ENDBRANCH  59  60
ENDBRANCH  44  59
ENDBRANCH  41  44
ENDBRANCH  39  40
BRANCH  39  66
ATOM     66  CB  GLU A   5       7.173   8.627  74.014  0.00  0.00    +0.041 C 
BRANCH  66  67
ATOM     67  CG  GLU A   5       7.667   7.186  74.152  0.00  0.00    +0.116 C 
BRANCH  67  68
ATOM     68  CD  GLU A   5       6.603   6.175  74.572  0.00  0.00    +0.365 C 
ATOM     69  OE2 GLU A   5       5.537   6.576  75.099  0.00  0.00    -0.246 OA
ATOM     70  OE1 GLU A   5       6.857   4.964  74.381  0.00  0.00    -0.246 OA
ENDBRANCH  67  68
ENDBRANCH  66  67
ENDBRANCH  39  66
ENDBRANCH  37  39
ENDBRANCH   1  35
BRANCH   1  71
ATOM     71  CB  TYR A   4       8.650   6.331  70.367  0.00  0.00    +0.055 C 
BRANCH  71  72
ATOM     72  CG  TYR A   4       9.469   5.550  69.359  0.00  0.00    -0.020 A 
ATOM     73  CD2 TYR A   4      10.797   5.860  69.127  0.00  0.00    -0.001 A 
ATOM     74  CE2 TYR A   4      11.543   5.140  68.212  0.00  0.00    +0.036 A 
ATOM     75  CZ  TYR A   4      10.956   4.101  67.523  0.00  0.00    +0.134 A 
ATOM     76  CE1 TYR A   4       9.649   3.771  67.737  0.00  0.00    +0.036 A 
ATOM     77  CD1 TYR A   4       8.913   4.487  68.655  0.00  0.00    -0.001 A 
BRANCH  75  78
ATOM     78  OH  TYR A   4      11.684   3.369  66.619  0.00  0.00    -0.506 OA
ATOM     79  HH  TYR A   4      11.107   2.669  66.222  0.00  0.00    +0.292 HD
ENDBRANCH  75  78
ENDBRANCH  71  72
ENDBRANCH   1  71
TORSDOF 34
REMARK  Name = ../refined-set-2016/3v51/3v51_pocket.pdb
REMARK  269 active torsions:
REMARK  status: ('A' for Active; 'I' for Inactive)
REMARK    1  A    between atoms: _1  and  _3
REMARK    2  A    between atoms: _3  and  _4
REMARK    3  A    between atoms: _3  and  _6
REMARK    4  A    between atoms: _6  and  _7
REMARK    5  A    between atoms: _7  and  _8
REMARK    6  A    between atoms: _8  and  _9
REMARK    7  A    between atoms: _18  and  _20
REMARK    8  A    between atoms: _20  and  _21
REMARK    9  A    between atoms: _20  and  _23
REMARK   10  A    between atoms: _26  and  _28
REMARK   11  A    between atoms: _28  and  _29
REMARK   12  A    between atoms: _28  and  _31
REMARK   13  A    between atoms: _31  and  _32
REMARK   14  A    between atoms: _35  and  _37
REMARK   15  A    between atoms: _37  and  _38
REMARK   16  A    between atoms: _40  and  _42
REMARK   17  A    between atoms: _42  and  _43
REMARK   18  A    between atoms: _42  and  _45
REMARK   19  A    between atoms: _45  and  _46
REMARK   20  A    between atoms: _46  and  _47
REMARK   21  A    between atoms: _47  and  _48
REMARK   22  A    between atoms: _48  and  _49
REMARK   23  A    between atoms: _53  and  _55
REMARK   24  A    between atoms: _55  and  _56
REMARK   25  A    between atoms: _58  and  _60
REMARK   26  A    between atoms: _60  and  _61
REMARK   27  A    between atoms: _60  and  _63
REMARK   28  A    between atoms: _63  and  _64
REMARK   29  A    between atoms: _68  and  _69
REMARK   30  A    between atoms: _71  and  _73
REMARK   31  A    between atoms: _73  and  _74
REMARK   32  A    between atoms: _73  and  _76
REMARK   33  A    between atoms: _76  and  _77
REMARK   34  A    between atoms: _77  and  _78
REMARK   35  A    between atoms: _81  and  _83
REMARK   36  A    between atoms: _83  and  _84
REMARK   37  A    between atoms: _83  and  _86
REMARK   38  A    between atoms: _89  and  _91
REMARK   39  A    between atoms: _91  and  _92
REMARK   40  A    between atoms: _91  and  _94
REMARK   41  A    between atoms: _94  and  _95
REMARK   42  A    between atoms: _98  and  _100
REMARK   43  A    between atoms: _100  and  _101
REMARK   44  A    between atoms: _100  and  _103
REMARK   45  A    between atoms: _103  and  _104
REMARK   46  A    between atoms: _107  and  _109
REMARK   47  A    between atoms: _109  and  _110
REMARK   48  A    between atoms: _109  and  _112
REMARK   49  A    between atoms: _114  and  _116
REMARK   50  A    between atoms: _116  and  _117
REMARK   51  A    between atoms: _120  and  _122
REMARK   52  A    between atoms: _122  and  _123
REMARK   53  A    between atoms: _122  and  _125
REMARK   54  A    between atoms: _128  and  _130
REMARK   55  A    between atoms: _130  and  _131
REMARK   56  A    between atoms: _130  and  _133
REMARK   57  A    between atoms: _133  and  _134
REMARK   58  A    between atoms: _134  and  _135
REMARK   59  A    between atoms: _135  and  _136
REMARK   60  A    between atoms: _136  and  _137
REMARK   61  A    between atoms: _141  and  _143
REMARK   62  A    between atoms: _143  and  _144
REMARK   63  A    between atoms: _143  and  _146
REMARK   64  A    between atoms: _149  and  _151
REMARK   65  A    between atoms: _151  and  _152
REMARK   66  A    between atoms: _151  and  _154
REMARK   67  A    between atoms: _154  and  _155
REMARK   68  A    between atoms: _158  and  _160
REMARK   69  A    between atoms: _160  and  _161
REMARK   70  A    between atoms: _160  and  _163
REMARK   71  A    between atoms: _163  and  _164
REMARK   72  A    between atoms: _167  and  _169
REMARK   73  A    between atoms: _169  and  _170
REMARK   74  A    between atoms: _169  and  _172
REMARK   75  A    between atoms: _172  and  _173
REMARK   76  A    between atoms: _175  and  _177
REMARK   77  A    between atoms: _177  and  _178
REMARK   78  A    between atoms: _177  and  _180
REMARK   79  A    between atoms: _180  and  _181
REMARK   80  A    between atoms: _184  and  _186
REMARK   81  A    between atoms: _186  and  _187
REMARK   82  A    between atoms: _186  and  _189
REMARK   83  A    between atoms: _189  and  _190
REMARK   84  A    between atoms: _193  and  _195
REMARK   85  A    between atoms: _195  and  _196
REMARK   86  A    between atoms: _195  and  _198
REMARK   87  A    between atoms: _198  and  _199
REMARK   88  A    between atoms: _199  and  _200
REMARK   89  A    between atoms: _203  and  _205
REMARK   90  A    between atoms: _205  and  _206
REMARK   91  A    between atoms: _205  and  _208
REMARK   92  A    between atoms: _211  and  _213
REMARK   93  A    between atoms: _213  and  _214
REMARK   94  A    between atoms: _213  and  _216
REMARK   95  A    between atoms: _216  and  _217
REMARK   96  A    between atoms: _217  and  _218
REMARK   97  A    between atoms: _223  and  _225
REMARK   98  A    between atoms: _225  and  _226
REMARK   99  A    between atoms: _225  and  _228
REMARK  100  A    between atoms: _228  and  _229
REMARK  101  A    between atoms: _232  and  _234
REMARK  102  A    between atoms: _234  and  _235
REMARK  103  A    between atoms: _234  and  _237
REMARK  104  A    between atoms: _237  and  _238
REMARK  105  A    between atoms: _238  and  _239
REMARK  106  A    between atoms: _239  and  _240
REMARK  107  A    between atoms: _240  and  _241
REMARK  108  A    between atoms: _245  and  _247
REMARK  109  A    between atoms: _247  and  _248
REMARK  110  A    between atoms: _247  and  _250
REMARK  111  A    between atoms: _250  and  _251
REMARK  112  A    between atoms: _251  and  _252
REMARK  113  A    between atoms: _254  and  _256
REMARK  114  A    between atoms: _256  and  _257
REMARK  115  A    between atoms: _256  and  _259
REMARK  116  A    between atoms: _259  and  _260
REMARK  117  A    between atoms: _260  and  _261
REMARK  118  A    between atoms: _261  and  _262
REMARK  119  A    between atoms: _262  and  _263
REMARK  120  A    between atoms: _267  and  _269
REMARK  121  A    between atoms: _269  and  _270
REMARK  122  A    between atoms: _269  and  _272
REMARK  123  A    between atoms: _272  and  _273
REMARK  124  A    between atoms: _276  and  _278
REMARK  125  A    between atoms: _278  and  _279
REMARK  126  A    between atoms: _278  and  _281
REMARK  127  A    between atoms: _281  and  _282
REMARK  128  A    between atoms: _287  and  _288
REMARK  129  A    between atoms: _290  and  _292
REMARK  130  A    between atoms: _292  and  _293
REMARK  131  A    between atoms: _292  and  _295
REMARK  132  A    between atoms: _295  and  _296
REMARK  133  A    between atoms: _296  and  _297
REMARK  134  A    between atoms: _300  and  _302
REMARK  135  A    between atoms: _302  and  _303
REMARK  136  A    between atoms: _302  and  _305
REMARK  137  A    between atoms: _305  and  _306
REMARK  138  A    between atoms: _312  and  _314
REMARK  139  A    between atoms: _314  and  _315
REMARK  140  A    between atoms: _314  and  _317
REMARK  141  A    between atoms: _317  and  _318
REMARK  142  A    between atoms: _324  and  _326
REMARK  143  A    between atoms: _326  and  _327
REMARK  144  A    between atoms: _326  and  _329
REMARK  145  A    between atoms: _329  and  _330
REMARK  146  A    between atoms: _336  and  _338
REMARK  147  A    between atoms: _338  and  _339
REMARK  148  A    between atoms: _338  and  _341
REMARK  149  A    between atoms: _341  and  _342
REMARK  150  A    between atoms: _347  and  _348
REMARK  151  A    between atoms: _350  and  _352
REMARK  152  A    between atoms: _352  and  _353
REMARK  153  A    between atoms: _352  and  _355
REMARK  154  A    between atoms: _355  and  _356
REMARK  155  A    between atoms: _359  and  _361
REMARK  156  A    between atoms: _361  and  _362
REMARK  157  A    between atoms: _361  and  _364
REMARK  158  A    between atoms: _367  and  _369
REMARK  159  A    between atoms: _369  and  _370
REMARK  160  A    between atoms: _372  and  _374
REMARK  161  A    between atoms: _374  and  _375
REMARK  162  A    between atoms: _374  and  _377
REMARK  163  A    between atoms: _377  and  _378
REMARK  164  A    between atoms: _378  and  _379
REMARK  165  A    between atoms: _382  and  _384
REMARK  166  A    between atoms: _384  and  _385
REMARK  167  A    between atoms: _384  and  _387
REMARK  168  A    between atoms: _390  and  _392
REMARK  169  A    between atoms: _392  and  _393
REMARK  170  A    between atoms: _392  and  _395
REMARK  171  A    between atoms: _395  and  _396
REMARK  172  A    between atoms: _401  and  _402
REMARK  173  A    between atoms: _404  and  _406
REMARK  174  A    between atoms: _406  and  _407
REMARK  175  A    between atoms: _406  and  _409
REMARK  176  A    between atoms: _409  and  _410
REMARK  177  A    between atoms: _413  and  _415
REMARK  178  A    between atoms: _415  and  _416
REMARK  179  A    between atoms: _418  and  _420
REMARK  180  A    between atoms: _420  and  _421
REMARK  181  A    between atoms: _423  and  _425
REMARK  182  A    between atoms: _425  and  _426
REMARK  183  A    between atoms: _425  and  _428
REMARK  184  A    between atoms: _428  and  _429
REMARK  185  A    between atoms: _429  and  _430
REMARK  186  A    between atoms: _433  and  _435
REMARK  187  A    between atoms: _435  and  _436
REMARK  188  A    between atoms: _435  and  _438
REMARK  189  A    between atoms: _438  and  _439
REMARK  190  A    between atoms: _442  and  _444
REMARK  191  A    between atoms: _444  and  _445
REMARK  192  A    between atoms: _444  and  _447
REMARK  193  A    between atoms: _450  and  _452
REMARK  194  A    between atoms: _452  and  _453
REMARK  195  A    between atoms: _452  and  _455
REMARK  196  A    between atoms: _455  and  _456
REMARK  197  A    between atoms: _456  and  _457
REMARK  198  A    between atoms: _460  and  _462
REMARK  199  A    between atoms: _462  and  _463
REMARK  200  A    between atoms: _462  and  _465
REMARK  201  A    between atoms: _465  and  _466
REMARK  202  A    between atoms: _471  and  _473
REMARK  203  A    between atoms: _473  and  _474
REMARK  204  A    between atoms: _473  and  _476
REMARK  205  A    between atoms: _476  and  _477
REMARK  206  A    between atoms: _480  and  _482
REMARK  207  A    between atoms: _482  and  _483
REMARK  208  A    between atoms: _482  and  _485
REMARK  209  A    between atoms: _485  and  _486
REMARK  210  A    between atoms: _489  and  _491
REMARK  211  A    between atoms: _491  and  _492
REMARK  212  A    between atoms: _491  and  _494
REMARK  213  A    between atoms: _494  and  _495
REMARK  214  A    between atoms: _498  and  _500
REMARK  215  A    between atoms: _500  and  _501
REMARK  216  A    between atoms: _500  and  _503
REMARK  217  A    between atoms: _503  and  _504
REMARK  218  A    between atoms: _504  and  _505
REMARK  219  A    between atoms: _508  and  _510
REMARK  220  A    between atoms: _510  and  _511
REMARK  221  A    between atoms: _510  and  _513
REMARK  222  A    between atoms: _513  and  _514
REMARK  223  A    between atoms: _514  and  _515
REMARK  224  A    between atoms: _515  and  _516
REMARK  225  A    between atoms: _525  and  _527
REMARK  226  A    between atoms: _527  and  _528
REMARK  227  A    between atoms: _527  and  _530
REMARK  228  A    between atoms: _530  and  _531
REMARK  229  A    between atoms: _534  and  _536
REMARK  230  A    between atoms: _536  and  _537
REMARK  231  A    between atoms: _536  and  _539
REMARK  232  A    between atoms: _539  and  _540
REMARK  233  A    between atoms: _543  and  _545
REMARK  234  A    between atoms: _545  and  _546
REMARK  235  A    between atoms: _545  and  _548
REMARK  236  A    between atoms: _548  and  _549
REMARK  237  A    between atoms: _552  and  _554
REMARK  238  A    between atoms: _554  and  _555
REMARK  239  A    between atoms: _554  and  _557
REMARK  240  A    between atoms: _557  and  _558
REMARK  241  A    between atoms: _564  and  _566
REMARK  242  A    between atoms: _566  and  _567
REMARK  243  A    between atoms: _569  and  _571
REMARK  244  A    between atoms: _571  and  _572
REMARK  245  A    between atoms: _571  and  _574
REMARK  246  A    between atoms: _574  and  _575
REMARK  247  A    between atoms: _578  and  _580
REMARK  248  A    between atoms: _580  and  _581
REMARK  249  A    between atoms: _580  and  _583
REMARK  250  A    between atoms: _583  and  _584
REMARK  251  A    between atoms: _586  and  _588
REMARK  252  A    between atoms: _588  and  _589
REMARK  253  A    between atoms: _588  and  _591
REMARK  254  A    between atoms: _591  and  _592
REMARK  255  A    between atoms: _595  and  _597
REMARK  256  A    between atoms: _597  and  _598
REMARK  257  A    between atoms: _597  and  _600
REMARK  258  A    between atoms: _600  and  _601
REMARK  259  A    between atoms: _606  and  _608
REMARK  260  A    between atoms: _608  and  _609
REMARK  261  A    between atoms: _608  and  _611
REMARK  262  A    between atoms: _611  and  _612
REMARK  263  A    between atoms: _618  and  _620
REMARK  264  A    between atoms: _620  and  _621
REMARK  265  A    between atoms: _620  and  _623
REMARK  266  A    between atoms: _623  and  _624
REMARK  267  A    between atoms: _624  and  _625
REMARK  268  A    between atoms: _625  and  _626
REMARK  269  A    between atoms: _626  and  _627
REMARK                            x       y       z     vdW  Elec       q    Type
REMARK                         _______ _______ _______ _____ _____    ______ ____
ROOT
ATOM      1  CA  GLU A   6      12.984   7.263  65.684  0.00  0.00    +0.149 C 
ENDROOT
BRANCH   1   2
ATOM      2  C   GLU A   6      14.115   8.113  65.107  0.00  0.00    +0.241 C 
ATOM      3  N   VAL A   7      15.348   7.738  65.416  0.00  0.00    -0.297 N 
ATOM      4  H   VAL A   7      15.496   6.891  66.001  0.00  0.00    +0.150 HD
ATOM      5  O   GLU A   6      13.864   9.108  64.408  0.00  0.00    -0.273 OA
BRANCH   3   6
ATOM      6  CA  VAL A   7      16.508   8.505  64.942  0.00  0.00    +0.149 C 
BRANCH   6   7
ATOM      7  C   VAL A   7      16.957   7.918  63.618  0.00  0.00    +0.241 C 
ATOM      8  O   VAL A   7      17.103   6.702  63.497  0.00  0.00    -0.273 OA
ATOM      9  N   TYR A   8      17.138   8.790  62.630  0.00  0.00    -0.297 N 
ATOM     10  H   TYR A   8      16.885   9.784  62.799  0.00  0.00    +0.150 HD
BRANCH   9  11
ATOM     11  CA  TYR A   8      17.674   8.427  61.318  0.00  0.00    +0.153 C 
BRANCH  11  12
ATOM     12  C   TYR A   8      19.058   9.051  61.145  0.00  0.00    +0.241 C 
ATOM     13  O   TYR A   8      19.285  10.172  61.566  0.00  0.00    -0.273 OA
ATOM     14  N   THR A   9      19.977   8.308  60.540  0.00  0.00    -0.295 N 
ATOM     15  H   THR A   9      19.682   7.430  60.068  0.00  0.00    +0.150 HD
BRANCH  14  16
ATOM     16  CA  THR A   9      21.390   8.684  60.516  0.00  0.00    +0.176 C 
BRANCH  16  17
ATOM     17  C   THR A   9      21.952   9.022  59.137  0.00  0.00    +0.243 C 
ATOM     18  O   THR A   9      23.143   9.295  59.012  0.00  0.00    -0.273 OA
ATOM     19  N   GLY A  10      21.110   8.997  58.109  0.00  0.00    -0.295 N 
ATOM     20  H   GLY A  10      20.101   8.825  58.291  0.00  0.00    +0.150 HD
BRANCH  19  21
ATOM     21  CA  GLY A  10      21.555   9.204  56.722  0.00  0.00    +0.176 C 
BRANCH  21  22
ATOM     22  C   GLY A  10      21.633  10.642  56.248  0.00  0.00    +0.243 C 
ATOM     23  N   GLY A  11      21.123  11.571  57.052  0.00  0.00    -0.295 N 
ATOM     24  H   GLY A  11      20.675  11.275  57.943  0.00  0.00    +0.150 HD
ATOM     25  O   GLY A  10      22.131  10.909  55.149  0.00  0.00    -0.273 OA
BRANCH  23  26
ATOM     26  CA  GLY A  11      21.172  13.002  56.723  0.00  0.00    +0.176 C 
BRANCH  26  27
ATOM     27  C   GLY A  11      20.078  13.415  55.764  0.00  0.00    +0.243 C 
ATOM     28  O   GLY A  11      19.215  12.609  55.408  0.00  0.00    -0.273 OA
ATOM     29  N   GLU A  12      20.116  14.675  55.343  0.00  0.00    -0.298 N 
ATOM     30  H   GLU A  12      20.863  15.302  55.704  0.00  0.00    +0.150 HD
BRANCH  29  31
ATOM     31  CA  GLU A  12      19.148  15.210  54.394  0.00  0.00    +0.137 C 
BRANCH  31  32
ATOM     32  C   GLU A  12      19.388  14.660  52.986  0.00  0.00    +0.227 C 
ATOM     33  O   GLU A  12      20.520  14.587  52.523  0.00  0.00    -0.286 OA
ENDBRANCH  31  32
BRANCH  31  34
ATOM     34  CB  GLU A  12      19.206  16.740  54.419  0.00  0.00    +0.039 C 
BRANCH  34  35
ATOM     35  CG  GLU A  12      18.601  17.346  55.682  0.00  0.00    +0.116 C 
BRANCH  35  36
ATOM     36  CD  GLU A  12      18.977  18.809  55.917  0.00  0.00    +0.365 C 
ATOM     37  OE2 GLU A  12      19.029  19.198  57.098  0.00  0.00    -0.246 OA
ATOM     38  OE1 GLU A  12      19.194  19.580  54.946  0.00  0.00    -0.246 OA
ENDBRANCH  35  36
ENDBRANCH  34  35
ENDBRANCH  31  34
ENDBRANCH  29  31
ENDBRANCH  26  27
ENDBRANCH  23  26
ENDBRANCH  21  22
ENDBRANCH  19  21
ENDBRANCH  16  17
BRANCH  16  39
ATOM     39  CB  THR A   9      22.227   7.523  61.055  0.00  0.00    +0.137 C 
ATOM     40  CG2 THR A   9      21.863   7.247  62.512  0.00  0.00    +0.034 C 
BRANCH  39  41
ATOM     41  OG1 THR A   9      21.970   6.359  60.250  0.00  0.00    -0.382 OA
ATOM     42  HG1 THR A   9      22.507   5.599  60.589  0.00  0.00    +0.210 HD
ENDBRANCH  39  41
ENDBRANCH  16  39
ENDBRANCH  14  16
ENDBRANCH  11  12
BRANCH  11  43
ATOM     43  CB  TYR A   8      16.702   8.868  60.219  0.00  0.00    +0.055 C 
BRANCH  43  44
ATOM     44  CG  TYR A   8      15.337   8.282  60.467  0.00  0.00    -0.020 A 
ATOM     45  CD2 TYR A   8      14.235   9.105  60.664  0.00  0.00    -0.001 A 
ATOM     46  CE2 TYR A   8      12.979   8.563  60.933  0.00  0.00    +0.036 A 
ATOM     47  CZ  TYR A   8      12.819   7.207  61.017  0.00  0.00    +0.134 A 
ATOM     48  CE1 TYR A   8      13.910   6.362  60.847  0.00  0.00    +0.036 A 
ATOM     49  CD1 TYR A   8      15.163   6.905  60.577  0.00  0.00    -0.001 A 
BRANCH  47  50
ATOM     50  OH  TYR A   8      11.570   6.688  61.310  0.00  0.00    -0.506 OA
ATOM     51  HH  TYR A   8      11.622   5.700  61.334  0.00  0.00    +0.292 HD
ENDBRANCH  47  50
ENDBRANCH  43  44
ENDBRANCH  11  43
ENDBRANCH   9  11
ENDBRANCH   6   7
BRANCH   6  52
ATOM     52  CB  VAL A   7      17.687   8.505  65.937  0.00  0.00    +0.027 C 
ATOM     53  CG2 VAL A   7      18.073   7.090  66.313  0.00  0.00    +0.002 C 
ATOM     54  CG1 VAL A   7      18.889   9.245  65.341  0.00  0.00    +0.002 C 
ENDBRANCH   6  52
ENDBRANCH   3   6
ENDBRANCH   1   2
BRANCH   1  57
ATOM     55  C   GLY A   5      11.980   8.912  67.154  0.00  0.00    +0.243 C 
ATOM     56  O   GLY A   5      12.935   8.935  67.918  0.00  0.00    -0.273 OA
ATOM     57  N   GLU A   6      11.928   8.154  66.067  0.00  0.00    -0.297 N 
ATOM     58  H   GLU A   6      11.082   8.208  65.464  0.00  0.00    +0.150 HD
BRANCH  55  59
ATOM     59  CA  GLY A   5      10.768   9.781  67.393  0.00  0.00    +0.176 C 
BRANCH  59  62
ATOM     60  C   VAL A   4       9.963  10.430  69.629  0.00  0.00    +0.241 C 
ATOM     61  O   VAL A   4       8.977   9.678  69.601  0.00  0.00    -0.273 OA
ATOM     62  N   GLY A   5      10.857  10.522  68.653  0.00  0.00    -0.295 N 
ATOM     63  H   GLY A   5      11.669  11.158  68.791  0.00  0.00    +0.150 HD
BRANCH  60  64
ATOM     64  CA  VAL A   4      10.185  11.346  70.813  0.00  0.00    +0.149 C 
BRANCH  64  66
ATOM     65  C   LEU A   3       9.431  13.650  70.434  0.00  0.00    +0.241 C 
ATOM     66  N   VAL A   4       9.160  12.392  70.787  0.00  0.00    -0.297 N 
ATOM     67  H   VAL A   4       8.185  12.145  71.053  0.00  0.00    +0.150 HD
ATOM     68  O   LEU A   3      10.506  13.978  69.938  0.00  0.00    -0.273 OA
BRANCH  65  69
ATOM     69  CA  LEU A   3       8.350  14.698  70.724  0.00  0.00    +0.149 C 
BRANCH  69  72
ATOM     70  C   TYR A   2       8.419  15.511  73.030  0.00  0.00    +0.241 C 
ATOM     71  O   TYR A   2       7.655  14.625  73.446  0.00  0.00    -0.273 OA
ATOM     72  N   LEU A   3       8.812  15.597  71.766  0.00  0.00    -0.297 N 
ATOM     73  H   LEU A   3       9.485  16.347  71.508  0.00  0.00    +0.150 HD
BRANCH  70  74
ATOM     74  CA  TYR A   2       8.982  16.586  73.966  0.00  0.00    +0.153 C 
BRANCH  74  76
ATOM     75  C   PHE A   1       7.936  18.789  74.076  0.00  0.00    +0.239 C 
ATOM     76  N   TYR A   2       7.898  17.501  74.341  0.00  0.00    -0.297 N 
ATOM     77  H   TYR A   2       7.068  17.117  74.835  0.00  0.00    +0.150 HD
ATOM     78  O   PHE A   1       8.895  19.317  73.533  0.00  0.00    -0.274 OA
BRANCH  75  79
ATOM     79  CA  PHE A   1       6.707  19.614  74.462  0.00  0.00    +0.149 C 
BRANCH  79  80
ATOM     80  N   PHE A   1       7.198  20.873  74.989  0.00  0.00    -0.238 NA
ATOM     81  H   PHE A   1       7.620  21.555  74.327  0.00  0.00    +0.142 HD
ENDBRANCH  79  80
BRANCH  79  82
ATOM     82  CB  PHE A   1       5.854  19.837  73.218  0.00  0.00    +0.053 C 
BRANCH  82  83
ATOM     83  CG  PHE A   1       4.531  20.479  73.494  0.00  0.00    -0.020 A 
ATOM     84  CD2 PHE A   1       3.509  19.752  74.071  0.00  0.00    -0.004 A 
ATOM     85  CE2 PHE A   1       2.279  20.336  74.328  0.00  0.00    -0.000 A 
ATOM     86  CZ  PHE A   1       2.064  21.661  74.016  0.00  0.00    -0.000 A 
ATOM     87  CE1 PHE A   1       3.076  22.405  73.443  0.00  0.00    -0.000 A 
ATOM     88  CD1 PHE A   1       4.309  21.813  73.189  0.00  0.00    -0.004 A 
ENDBRANCH  82  83
ENDBRANCH  79  82
ENDBRANCH  75  79
ENDBRANCH  74  76
BRANCH  74  89
ATOM     89  CB  TYR A   2       9.552  15.934  75.199  0.00  0.00    +0.055 C 
BRANCH  89  90
ATOM     90  CG  TYR A   2      10.007  16.895  76.284  0.00  0.00    -0.020 A 
ATOM     91  CD2 TYR A   2       9.139  17.320  77.281  0.00  0.00    -0.001 A 
ATOM     92  CE2 TYR A   2       9.564  18.180  78.280  0.00  0.00    +0.036 A 
ATOM     93  CZ  TYR A   2      10.871  18.613  78.295  0.00  0.00    +0.134 A 
ATOM     94  CE1 TYR A   2      11.744  18.207  77.319  0.00  0.00    +0.036 A 
ATOM     95  CD1 TYR A   2      11.307  17.351  76.320  0.00  0.00    -0.001 A 
BRANCH  93  96
ATOM     96  OH  TYR A   2      11.312  19.462  79.267  0.00  0.00    -0.506 OA
ATOM     97  HH  TYR A   2      11.197  19.036  80.153  0.00  0.00    +0.292 HD
ENDBRANCH  93  96
ENDBRANCH  89  90
ENDBRANCH  74  89
ENDBRANCH  70  74
ENDBRANCH  69  72
BRANCH  69  98
ATOM     98  CB  LEU A   3       8.011  15.502  69.466  0.00  0.00    +0.029 C 
BRANCH  98  99
ATOM     99  CG  LEU A   3       7.301  16.865  69.629  0.00  0.00    +0.002 C 
ATOM    100  CD2 LEU A   3       6.116  16.828  70.575  0.00  0.00    +0.000 C 
ATOM    101  CD1 LEU A   3       6.831  17.322  68.260  0.00  0.00    +0.000 C 
ENDBRANCH  98  99
ENDBRANCH  69  98
ENDBRANCH  65  69
ENDBRANCH  64  66
BRANCH  64 102
ATOM    102  CB  VAL A   4      10.136  10.534  72.103  0.00  0.00    +0.027 C 
ATOM    103  CG2 VAL A   4      10.100  11.439  73.324  0.00  0.00    +0.002 C 
ATOM    104  CG1 VAL A   4      11.322   9.561  72.188  0.00  0.00    +0.002 C 
ENDBRANCH  64 102
ENDBRANCH  60  64
ENDBRANCH  59  62
ENDBRANCH  55  59
ENDBRANCH   1  57
BRANCH   1 105
ATOM    105  CB  GLU A   6      12.459   6.248  64.654  0.00  0.00    +0.041 C 
BRANCH 105 106
ATOM    106  CG  GLU A   6      13.491   5.232  64.159  0.00  0.00    +0.116 C 
BRANCH 106 107
ATOM    107  CD  GLU A   6      12.905   4.160  63.245  0.00  0.00    +0.365 C 
ATOM    108  OE2 GLU A   6      13.572   3.120  63.075  0.00  0.00    -0.246 OA
ATOM    109  OE1 GLU A   6      11.806   4.346  62.668  0.00  0.00    -0.246 OA
ENDBRANCH 106 107
ENDBRANCH 105 106
ENDBRANCH   1 105
TORSDOF 44
REMARK  Name = ../refined-set-2016/3v51/3v51_pocket.pdb
REMARK  269 active torsions:
REMARK  status: ('A' for Active; 'I' for Inactive)
REMARK    1  A    between atoms: _1  and  _3
REMARK    2  A    between atoms: _3  and  _4
REMARK    3  A    between atoms: _3  and  _6
REMARK    4  A    between atoms: _6  and  _7
REMARK    5  A    between atoms: _7  and  _8
REMARK    6  A    between atoms: _8  and  _9
REMARK    7  A    between atoms: _18  and  _20
REMARK    8  A    between atoms: _20  and  _21
REMARK    9  A    between atoms: _20  and  _23
REMARK   10  A    between atoms: _26  and  _28
REMARK   11  A    between atoms: _28  and  _29
REMARK   12  A    between atoms: _28  and  _31
REMARK   13  A    between atoms: _31  and  _32
REMARK   14  A    between atoms: _35  and  _37
REMARK   15  A    between atoms: _37  and  _38
REMARK   16  A    between atoms: _40  and  _42
REMARK   17  A    between atoms: _42  and  _43
REMARK   18  A    between atoms: _42  and  _45
REMARK   19  A    between atoms: _45  and  _46
REMARK   20  A    between atoms: _46  and  _47
REMARK   21  A    between atoms: _47  and  _48
REMARK   22  A    between atoms: _48  and  _49
REMARK   23  A    between atoms: _53  and  _55
REMARK   24  A    between atoms: _55  and  _56
REMARK   25  A    between atoms: _58  and  _60
REMARK   26  A    between atoms: _60  and  _61
REMARK   27  A    between atoms: _60  and  _63
REMARK   28  A    between atoms: _63  and  _64
REMARK   29  A    between atoms: _68  and  _69
REMARK   30  A    between atoms: _71  and  _73
REMARK   31  A    between atoms: _73  and  _74
REMARK   32  A    between atoms: _73  and  _76
REMARK   33  A    between atoms: _76  and  _77
REMARK   34  A    between atoms: _77  and  _78
REMARK   35  A    between atoms: _81  and  _83
REMARK   36  A    between atoms: _83  and  _84
REMARK   37  A    between atoms: _83  and  _86
REMARK   38  A    between atoms: _89  and  _91
REMARK   39  A    between atoms: _91  and  _92
REMARK   40  A    between atoms: _91  and  _94
REMARK   41  A    between atoms: _94  and  _95
REMARK   42  A    between atoms: _98  and  _100
REMARK   43  A    between atoms: _100  and  _101
REMARK   44  A    between atoms: _100  and  _103
REMARK   45  A    between atoms: _103  and  _104
REMARK   46  A    between atoms: _107  and  _109
REMARK   47  A    between atoms: _109  and  _110
REMARK   48  A    between atoms: _109  and  _112
REMARK   49  A    between atoms: _114  and  _116
REMARK   50  A    between atoms: _116  and  _117
REMARK   51  A    between atoms: _120  and  _122
REMARK   52  A    between atoms: _122  and  _123
REMARK   53  A    between atoms: _122  and  _125
REMARK   54  A    between atoms: _128  and  _130
REMARK   55  A    between atoms: _130  and  _131
REMARK   56  A    between atoms: _130  and  _133
REMARK   57  A    between atoms: _133  and  _134
REMARK   58  A    between atoms: _134  and  _135
REMARK   59  A    between atoms: _135  and  _136
REMARK   60  A    between atoms: _136  and  _137
REMARK   61  A    between atoms: _141  and  _143
REMARK   62  A    between atoms: _143  and  _144
REMARK   63  A    between atoms: _143  and  _146
REMARK   64  A    between atoms: _149  and  _151
REMARK   65  A    between atoms: _151  and  _152
REMARK   66  A    between atoms: _151  and  _154
REMARK   67  A    between atoms: _154  and  _155
REMARK   68  A    between atoms: _158  and  _160
REMARK   69  A    between atoms: _160  and  _161
REMARK   70  A    between atoms: _160  and  _163
REMARK   71  A    between atoms: _163  and  _164
REMARK   72  A    between atoms: _167  and  _169
REMARK   73  A    between atoms: _169  and  _170
REMARK   74  A    between atoms: _169  and  _172
REMARK   75  A    between atoms: _172  and  _173
REMARK   76  A    between atoms: _175  and  _177
REMARK   77  A    between atoms: _177  and  _178
REMARK   78  A    between atoms: _177  and  _180
REMARK   79  A    between atoms: _180  and  _181
REMARK   80  A    between atoms: _184  and  _186
REMARK   81  A    between atoms: _186  and  _187
REMARK   82  A    between atoms: _186  and  _189
REMARK   83  A    between atoms: _189  and  _190
REMARK   84  A    between atoms: _193  and  _195
REMARK   85  A    between atoms: _195  and  _196
REMARK   86  A    between atoms: _195  and  _198
REMARK   87  A    between atoms: _198  and  _199
REMARK   88  A    between atoms: _199  and  _200
REMARK   89  A    between atoms: _203  and  _205
REMARK   90  A    between atoms: _205  and  _206
REMARK   91  A    between atoms: _205  and  _208
REMARK   92  A    between atoms: _211  and  _213
REMARK   93  A    between atoms: _213  and  _214
REMARK   94  A    between atoms: _213  and  _216
REMARK   95  A    between atoms: _216  and  _217
REMARK   96  A    between atoms: _217  and  _218
REMARK   97  A    between atoms: _223  and  _225
REMARK   98  A    between atoms: _225  and  _226
REMARK   99  A    between atoms: _225  and  _228
REMARK  100  A    between atoms: _228  and  _229
REMARK  101  A    between atoms: _232  and  _234
REMARK  102  A    between atoms: _234  and  _235
REMARK  103  A    between atoms: _234  and  _237
REMARK  104  A    between atoms: _237  and  _238
REMARK  105  A    between atoms: _238  and  _239
REMARK  106  A    between atoms: _239  and  _240
REMARK  107  A    between atoms: _240  and  _241
REMARK  108  A    between atoms: _245  and  _247
REMARK  109  A    between atoms: _247  and  _248
REMARK  110  A    between atoms: _247  and  _250
REMARK  111  A    between atoms: _250  and  _251
REMARK  112  A    between atoms: _251  and  _252
REMARK  113  A    between atoms: _254  and  _256
REMARK  114  A    between atoms: _256  and  _257
REMARK  115  A    between atoms: _256  and  _259
REMARK  116  A    between atoms: _259  and  _260
REMARK  117  A    between atoms: _260  and  _261
REMARK  118  A    between atoms: _261  and  _262
REMARK  119  A    between atoms: _262  and  _263
REMARK  120  A    between atoms: _267  and  _269
REMARK  121  A    between atoms: _269  and  _270
REMARK  122  A    between atoms: _269  and  _272
REMARK  123  A    between atoms: _272  and  _273
REMARK  124  A    between atoms: _276  and  _278
REMARK  125  A    between atoms: _278  and  _279
REMARK  126  A    between atoms: _278  and  _281
REMARK  127  A    between atoms: _281  and  _282
REMARK  128  A    between atoms: _287  and  _288
REMARK  129  A    between atoms: _290  and  _292
REMARK  130  A    between atoms: _292  and  _293
REMARK  131  A    between atoms: _292  and  _295
REMARK  132  A    between atoms: _295  and  _296
REMARK  133  A    between atoms: _296  and  _297
REMARK  134  A    between atoms: _300  and  _302
REMARK  135  A    between atoms: _302  and  _303
REMARK  136  A    between atoms: _302  and  _305
REMARK  137  A    between atoms: _305  and  _306
REMARK  138  A    between atoms: _312  and  _314
REMARK  139  A    between atoms: _314  and  _315
REMARK  140  A    between atoms: _314  and  _317
REMARK  141  A    between atoms: _317  and  _318
REMARK  142  A    between atoms: _324  and  _326
REMARK  143  A    between atoms: _326  and  _327
REMARK  144  A    between atoms: _326  and  _329
REMARK  145  A    between atoms: _329  and  _330
REMARK  146  A    between atoms: _336  and  _338
REMARK  147  A    between atoms: _338  and  _339
REMARK  148  A    between atoms: _338  and  _341
REMARK  149  A    between atoms: _341  and  _342
REMARK  150  A    between atoms: _347  and  _348
REMARK  151  A    between atoms: _350  and  _352
REMARK  152  A    between atoms: _352  and  _353
REMARK  153  A    between atoms: _352  and  _355
REMARK  154  A    between atoms: _355  and  _356
REMARK  155  A    between atoms: _359  and  _361
REMARK  156  A    between atoms: _361  and  _362
REMARK  157  A    between atoms: _361  and  _364
REMARK  158  A    between atoms: _367  and  _369
REMARK  159  A    between atoms: _369  and  _370
REMARK  160  A    between atoms: _372  and  _374
REMARK  161  A    between atoms: _374  and  _375
REMARK  162  A    between atoms: _374  and  _377
REMARK  163  A    between atoms: _377  and  _378
REMARK  164  A    between atoms: _378  and  _379
REMARK  165  A    between atoms: _382  and  _384
REMARK  166  A    between atoms: _384  and  _385
REMARK  167  A    between atoms: _384  and  _387
REMARK  168  A    between atoms: _390  and  _392
REMARK  169  A    between atoms: _392  and  _393
REMARK  170  A    between atoms: _392  and  _395
REMARK  171  A    between atoms: _395  and  _396
REMARK  172  A    between atoms: _401  and  _402
REMARK  173  A    between atoms: _404  and  _406
REMARK  174  A    between atoms: _406  and  _407
REMARK  175  A    between atoms: _406  and  _409
REMARK  176  A    between atoms: _409  and  _410
REMARK  177  A    between atoms: _413  and  _415
REMARK  178  A    between atoms: _415  and  _416
REMARK  179  A    between atoms: _418  and  _420
REMARK  180  A    between atoms: _420  and  _421
REMARK  181  A    between atoms: _423  and  _425
REMARK  182  A    between atoms: _425  and  _426
REMARK  183  A    between atoms: _425  and  _428
REMARK  184  A    between atoms: _428  and  _429
REMARK  185  A    between atoms: _429  and  _430
REMARK  186  A    between atoms: _433  and  _435
REMARK  187  A    between atoms: _435  and  _436
REMARK  188  A    between atoms: _435  and  _438
REMARK  189  A    between atoms: _438  and  _439
REMARK  190  A    between atoms: _442  and  _444
REMARK  191  A    between atoms: _444  and  _445
REMARK  192  A    between atoms: _444  and  _447
REMARK  193  A    between atoms: _450  and  _452
REMARK  194  A    between atoms: _452  and  _453
REMARK  195  A    between atoms: _452  and  _455
REMARK  196  A    between atoms: _455  and  _456
REMARK  197  A    between atoms: _456  and  _457
REMARK  198  A    between atoms: _460  and  _462
REMARK  199  A    between atoms: _462  and  _463
REMARK  200  A    between atoms: _462  and  _465
REMARK  201  A    between atoms: _465  and  _466
REMARK  202  A    between atoms: _471  and  _473
REMARK  203  A    between atoms: _473  and  _474
REMARK  204  A    between atoms: _473  and  _476
REMARK  205  A    between atoms: _476  and  _477
REMARK  206  A    between atoms: _480  and  _482
REMARK  207  A    between atoms: _482  and  _483
REMARK  208  A    between atoms: _482  and  _485
REMARK  209  A    between atoms: _485  and  _486
REMARK  210  A    between atoms: _489  and  _491
REMARK  211  A    between atoms: _491  and  _492
REMARK  212  A    between atoms: _491  and  _494
REMARK  213  A    between atoms: _494  and  _495
REMARK  214  A    between atoms: _498  and  _500
REMARK  215  A    between atoms: _500  and  _501
REMARK  216  A    between atoms: _500  and  _503
REMARK  217  A    between atoms: _503  and  _504
REMARK  218  A    between atoms: _504  and  _505
REMARK  219  A    between atoms: _508  and  _510
REMARK  220  A    between atoms: _510  and  _511
REMARK  221  A    between atoms: _510  and  _513
REMARK  222  A    between atoms: _513  and  _514
REMARK  223  A    between atoms: _514  and  _515
REMARK  224  A    between atoms: _515  and  _516
REMARK  225  A    between atoms: _525  and  _527
REMARK  226  A    between atoms: _527  and  _528
REMARK  227  A    between atoms: _527  and  _530
REMARK  228  A    between atoms: _530  and  _531
REMARK  229  A    between atoms: _534  and  _536
REMARK  230  A    between atoms: _536  and  _537
REMARK  231  A    between atoms: _536  and  _539
REMARK  232  A    between atoms: _539  and  _540
REMARK  233  A    between atoms: _543  and  _545
REMARK  234  A    between atoms: _545  and  _546
REMARK  235  A    between atoms: _545  and  _548
REMARK  236  A    between atoms: _548  and  _549
REMARK  237  A    between atoms: _552  and  _554
REMARK  238  A    between atoms: _554  and  _555
REMARK  239  A    between atoms: _554  and  _557
REMARK  240  A    between atoms: _557  and  _558
REMARK  241  A    between atoms: _564  and  _566
REMARK  242  A    between atoms: _566  and  _567
REMARK  243  A    between atoms: _569  and  _571
REMARK  244  A    between atoms: _571  and  _572
REMARK  245  A    between atoms: _571  and  _574
REMARK  246  A    between atoms: _574  and  _575
REMARK  247  A    between atoms: _578  and  _580
REMARK  248  A    between atoms: _580  and  _581
REMARK  249  A    between atoms: _580  and  _583
REMARK  250  A    between atoms: _583  and  _584
REMARK  251  A    between atoms: _586  and  _588
REMARK  252  A    between atoms: _588  and  _589
REMARK  253  A    between atoms: _588  and  _591
REMARK  254  A    between atoms: _591  and  _592
REMARK  255  A    between atoms: _595  and  _597
REMARK  256  A    between atoms: _597  and  _598
REMARK  257  A    between atoms: _597  and  _600
REMARK  258  A    between atoms: _600  and  _601
REMARK  259  A    between atoms: _606  and  _608
REMARK  260  A    between atoms: _608  and  _609
REMARK  261  A    between atoms: _608  and  _611
REMARK  262  A    between atoms: _611  and  _612
REMARK  263  A    between atoms: _618  and  _620
REMARK  264  A    between atoms: _620  and  _621
REMARK  265  A    between atoms: _620  and  _623
REMARK  266  A    between atoms: _623  and  _624
REMARK  267  A    between atoms: _624  and  _625
REMARK  268  A    between atoms: _625  and  _626
REMARK  269  A    between atoms: _626  and  _627
REMARK                            x       y       z     vdW  Elec       q    Type
REMARK                         _______ _______ _______ _____ _____    ______ ____
ROOT
ATOM      1  C   ILE A   1      -2.164  14.809  56.981  0.00  0.00    +0.238 C 
ATOM      2  N   VAL A   2      -1.990  16.132  57.060  0.00  0.00    -0.298 N 
ATOM      3  H   VAL A   2      -2.316  16.609  57.925  0.00  0.00    +0.150 HD
ATOM      4  O   ILE A   1      -1.790  14.115  56.035  0.00  0.00    -0.274 OA
ENDROOT
BRANCH   1   5
ATOM      5  CA  ILE A   1      -2.854  14.154  58.171  0.00  0.00    +0.145 C 
BRANCH   5   6
ATOM      6  N   ILE A   1      -3.951  13.339  57.652  0.00  0.00    -0.238 NA
ATOM      7  H   ILE A   1      -3.730  12.549  57.012  0.00  0.00    +0.142 HD
ENDBRANCH   5   6
BRANCH   5   8
ATOM      8  CB  ILE A   1      -1.822  13.320  58.962  0.00  0.00    +0.025 C 
ATOM      9  CG2 ILE A   1      -0.750  14.213  59.582  0.00  0.00    +0.002 C 
BRANCH   8  10
ATOM     10  CG1 ILE A   1      -2.520  12.521  60.071  0.00  0.00    +0.002 C 
ATOM     11  CD1 ILE A   1      -1.635  11.454  60.663  0.00  0.00    +0.000 C 
ENDBRANCH   8  10
ENDBRANCH   5   8
ENDBRANCH   1   5
BRANCH   2  12
ATOM     12  CA  VAL A   2      -1.373  16.963  56.016  0.00  0.00    +0.137 C 
BRANCH  12  13
ATOM     13  CB  VAL A   2      -2.316  18.132  55.646  0.00  0.00    +0.026 C 
ATOM     14  CG2 VAL A   2      -3.708  17.613  55.281  0.00  0.00    +0.002 C 
ATOM     15  CG1 VAL A   2      -1.757  18.981  54.510  0.00  0.00    +0.002 C 
ENDBRANCH  12  13
BRANCH  12  16
ATOM     16  C   VAL A   2      -0.034  17.530  56.535  0.00  0.00    +0.227 C 
ATOM     17  O   VAL A   2       0.131  17.734  57.722  0.00  0.00    -0.286 OA
ENDBRANCH  12  16
ENDBRANCH   2  12
TORSDOF 7
REMARK  Name = ../refined-set-2016/3v51/3v51_pocket.pdb
REMARK  269 active torsions:
REMARK  status: ('A' for Active; 'I' for Inactive)
REMARK    1  A    between atoms: _1  and  _3
REMARK    2  A    between atoms: _3  and  _4
REMARK    3  A    between atoms: _3  and  _6
REMARK    4  A    between atoms: _6  and  _7
REMARK    5  A    between atoms: _7  and  _8
REMARK    6  A    between atoms: _8  and  _9
REMARK    7  A    between atoms: _18  and  _20
REMARK    8  A    between atoms: _20  and  _21
REMARK    9  A    between atoms: _20  and  _23
REMARK   10  A    between atoms: _26  and  _28
REMARK   11  A    between atoms: _28  and  _29
REMARK   12  A    between atoms: _28  and  _31
REMARK   13  A    between atoms: _31  and  _32
REMARK   14  A    between atoms: _35  and  _37
REMARK   15  A    between atoms: _37  and  _38
REMARK   16  A    between atoms: _40  and  _42
REMARK   17  A    between atoms: _42  and  _43
REMARK   18  A    between atoms: _42  and  _45
REMARK   19  A    between atoms: _45  and  _46
REMARK   20  A    between atoms: _46  and  _47
REMARK   21  A    between atoms: _47  and  _48
REMARK   22  A    between atoms: _48  and  _49
REMARK   23  A    between atoms: _53  and  _55
REMARK   24  A    between atoms: _55  and  _56
REMARK   25  A    between atoms: _58  and  _60
REMARK   26  A    between atoms: _60  and  _61
REMARK   27  A    between atoms: _60  and  _63
REMARK   28  A    between atoms: _63  and  _64
REMARK   29  A    between atoms: _68  and  _69
REMARK   30  A    between atoms: _71  and  _73
REMARK   31  A    between atoms: _73  and  _74
REMARK   32  A    between atoms: _73  and  _76
REMARK   33  A    between atoms: _76  and  _77
REMARK   34  A    between atoms: _77  and  _78
REMARK   35  A    between atoms: _81  and  _83
REMARK   36  A    between atoms: _83  and  _84
REMARK   37  A    between atoms: _83  and  _86
REMARK   38  A    between atoms: _89  and  _91
REMARK   39  A    between atoms: _91  and  _92
REMARK   40  A    between atoms: _91  and  _94
REMARK   41  A    between atoms: _94  and  _95
REMARK   42  A    between atoms: _98  and  _100
REMARK   43  A    between atoms: _100  and  _101
REMARK   44  A    between atoms: _100  and  _103
REMARK   45  A    between atoms: _103  and  _104
REMARK   46  A    between atoms: _107  and  _109
REMARK   47  A    between atoms: _109  and  _110
REMARK   48  A    between atoms: _109  and  _112
REMARK   49  A    between atoms: _114  and  _116
REMARK   50  A    between atoms: _116  and  _117
REMARK   51  A    between atoms: _120  and  _122
REMARK   52  A    between atoms: _122  and  _123
REMARK   53  A    between atoms: _122  and  _125
REMARK   54  A    between atoms: _128  and  _130
REMARK   55  A    between atoms: _130  and  _131
REMARK   56  A    between atoms: _130  and  _133
REMARK   57  A    between atoms: _133  and  _134
REMARK   58  A    between atoms: _134  and  _135
REMARK   59  A    between atoms: _135  and  _136
REMARK   60  A    between atoms: _136  and  _137
REMARK   61  A    between atoms: _141  and  _143
REMARK   62  A    between atoms: _143  and  _144
REMARK   63  A    between atoms: _143  and  _146
REMARK   64  A    between atoms: _149  and  _151
REMARK   65  A    between atoms: _151  and  _152
REMARK   66  A    between atoms: _151  and  _154
REMARK   67  A    between atoms: _154  and  _155
REMARK   68  A    between atoms: _158  and  _160
REMARK   69  A    between atoms: _160  and  _161
REMARK   70  A    between atoms: _160  and  _163
REMARK   71  A    between atoms: _163  and  _164
REMARK   72  A    between atoms: _167  and  _169
REMARK   73  A    between atoms: _169  and  _170
REMARK   74  A    between atoms: _169  and  _172
REMARK   75  A    between atoms: _172  and  _173
REMARK   76  A    between atoms: _175  and  _177
REMARK   77  A    between atoms: _177  and  _178
REMARK   78  A    between atoms: _177  and  _180
REMARK   79  A    between atoms: _180  and  _181
REMARK   80  A    between atoms: _184  and  _186
REMARK   81  A    between atoms: _186  and  _187
REMARK   82  A    between atoms: _186  and  _189
REMARK   83  A    between atoms: _189  and  _190
REMARK   84  A    between atoms: _193  and  _195
REMARK   85  A    between atoms: _195  and  _196
REMARK   86  A    between atoms: _195  and  _198
REMARK   87  A    between atoms: _198  and  _199
REMARK   88  A    between atoms: _199  and  _200
REMARK   89  A    between atoms: _203  and  _205
REMARK   90  A    between atoms: _205  and  _206
REMARK   91  A    between atoms: _205  and  _208
REMARK   92  A    between atoms: _211  and  _213
REMARK   93  A    between atoms: _213  and  _214
REMARK   94  A    between atoms: _213  and  _216
REMARK   95  A    between atoms: _216  and  _217
REMARK   96  A    between atoms: _217  and  _218
REMARK   97  A    between atoms: _223  and  _225
REMARK   98  A    between atoms: _225  and  _226
REMARK   99  A    between atoms: _225  and  _228
REMARK  100  A    between atoms: _228  and  _229
REMARK  101  A    between atoms: _232  and  _234
REMARK  102  A    between atoms: _234  and  _235
REMARK  103  A    between atoms: _234  and  _237
REMARK  104  A    between atoms: _237  and  _238
REMARK  105  A    between atoms: _238  and  _239
REMARK  106  A    between atoms: _239  and  _240
REMARK  107  A    between atoms: _240  and  _241
REMARK  108  A    between atoms: _245  and  _247
REMARK  109  A    between atoms: _247  and  _248
REMARK  110  A    between atoms: _247  and  _250
REMARK  111  A    between atoms: _250  and  _251
REMARK  112  A    between atoms: _251  and  _252
REMARK  113  A    between atoms: _254  and  _256
REMARK  114  A    between atoms: _256  and  _257
REMARK  115  A    between atoms: _256  and  _259
REMARK  116  A    between atoms: _259  and  _260
REMARK  117  A    between atoms: _260  and  _261
REMARK  118  A    between atoms: _261  and  _262
REMARK  119  A    between atoms: _262  and  _263
REMARK  120  A    between atoms: _267  and  _269
REMARK  121  A    between atoms: _269  and  _270
REMARK  122  A    between atoms: _269  and  _272
REMARK  123  A    between atoms: _272  and  _273
REMARK  124  A    between atoms: _276  and  _278
REMARK  125  A    between atoms: _278  and  _279
REMARK  126  A    between atoms: _278  and  _281
REMARK  127  A    between atoms: _281  and  _282
REMARK  128  A    between atoms: _287  and  _288
REMARK  129  A    between atoms: _290  and  _292
REMARK  130  A    between atoms: _292  and  _293
REMARK  131  A    between atoms: _292  and  _295
REMARK  132  A    between atoms: _295  and  _296
REMARK  133  A    between atoms: _296  and  _297
REMARK  134  A    between atoms: _300  and  _302
REMARK  135  A    between atoms: _302  and  _303
REMARK  136  A    between atoms: _302  and  _305
REMARK  137  A    between atoms: _305  and  _306
REMARK  138  A    between atoms: _312  and  _314
REMARK  139  A    between atoms: _314  and  _315
REMARK  140  A    between atoms: _314  and  _317
REMARK  141  A    between atoms: _317  and  _318
REMARK  142  A    between atoms: _324  and  _326
REMARK  143  A    between atoms: _326  and  _327
REMARK  144  A    between atoms: _326  and  _329
REMARK  145  A    between atoms: _329  and  _330
REMARK  146  A    between atoms: _336  and  _338
REMARK  147  A    between atoms: _338  and  _339
REMARK  148  A    between atoms: _338  and  _341
REMARK  149  A    between atoms: _341  and  _342
REMARK  150  A    between atoms: _347  and  _348
REMARK  151  A    between atoms: _350  and  _352
REMARK  152  A    between atoms: _352  and  _353
REMARK  153  A    between atoms: _352  and  _355
REMARK  154  A    between atoms: _355  and  _356
REMARK  155  A    between atoms: _359  and  _361
REMARK  156  A    between atoms: _361  and  _362
REMARK  157  A    between atoms: _361  and  _364
REMARK  158  A    between atoms: _367  and  _369
REMARK  159  A    between atoms: _369  and  _370
REMARK  160  A    between atoms: _372  and  _374
REMARK  161  A    between atoms: _374  and  _375
REMARK  162  A    between atoms: _374  and  _377
REMARK  163  A    between atoms: _377  and  _378
REMARK  164  A    between atoms: _378  and  _379
REMARK  165  A    between atoms: _382  and  _384
REMARK  166  A    between atoms: _384  and  _385
REMARK  167  A    between atoms: _384  and  _387
REMARK  168  A    between atoms: _390  and  _392
REMARK  169  A    between atoms: _392  and  _393
REMARK  170  A    between atoms: _392  and  _395
REMARK  171  A    between atoms: _395  and  _396
REMARK  172  A    between atoms: _401  and  _402
REMARK  173  A    between atoms: _404  and  _406
REMARK  174  A    between atoms: _406  and  _407
REMARK  175  A    between atoms: _406  and  _409
REMARK  176  A    between atoms: _409  and  _410
REMARK  177  A    between atoms: _413  and  _415
REMARK  178  A    between atoms: _415  and  _416
REMARK  179  A    between atoms: _418  and  _420
REMARK  180  A    between atoms: _420  and  _421
REMARK  181  A    between atoms: _423  and  _425
REMARK  182  A    between atoms: _425  and  _426
REMARK  183  A    between atoms: _425  and  _428
REMARK  184  A    between atoms: _428  and  _429
REMARK  185  A    between atoms: _429  and  _430
REMARK  186  A    between atoms: _433  and  _435
REMARK  187  A    between atoms: _435  and  _436
REMARK  188  A    between atoms: _435  and  _438
REMARK  189  A    between atoms: _438  and  _439
REMARK  190  A    between atoms: _442  and  _444
REMARK  191  A    between atoms: _444  and  _445
REMARK  192  A    between atoms: _444  and  _447
REMARK  193  A    between atoms: _450  and  _452
REMARK  194  A    between atoms: _452  and  _453
REMARK  195  A    between atoms: _452  and  _455
REMARK  196  A    between atoms: _455  and  _456
REMARK  197  A    between atoms: _456  and  _457
REMARK  198  A    between atoms: _460  and  _462
REMARK  199  A    between atoms: _462  and  _463
REMARK  200  A    between atoms: _462  and  _465
REMARK  201  A    between atoms: _465  and  _466
REMARK  202  A    between atoms: _471  and  _473
REMARK  203  A    between atoms: _473  and  _474
REMARK  204  A    between atoms: _473  and  _476
REMARK  205  A    between atoms: _476  and  _477
REMARK  206  A    between atoms: _480  and  _482
REMARK  207  A    between atoms: _482  and  _483
REMARK  208  A    between atoms: _482  and  _485
REMARK  209  A    between atoms: _485  and  _486
REMARK  210  A    between atoms: _489  and  _491
REMARK  211  A    between atoms: _491  and  _492
REMARK  212  A    between atoms: _491  and  _494
REMARK  213  A    between atoms: _494  and  _495
REMARK  214  A    between atoms: _498  and  _500
REMARK  215  A    between atoms: _500  and  _501
REMARK  216  A    between atoms: _500  and  _503
REMARK  217  A    between atoms: _503  and  _504
REMARK  218  A    between atoms: _504  and  _505
REMARK  219  A    between atoms: _508  and  _510
REMARK  220  A    between atoms: _510  and  _511
REMARK  221  A    between atoms: _510  and  _513
REMARK  222  A    between atoms: _513  and  _514
REMARK  223  A    between atoms: _514  and  _515
REMARK  224  A    between atoms: _515  and  _516
REMARK  225  A    between atoms: _525  and  _527
REMARK  226  A    between atoms: _527  and  _528
REMARK  227  A    between atoms: _527  and  _530
REMARK  228  A    between atoms: _530  and  _531
REMARK  229  A    between atoms: _534  and  _536
REMARK  230  A    between atoms: _536  and  _537
REMARK  231  A    between atoms: _536  and  _539
REMARK  232  A    between atoms: _539  and  _540
REMARK  233  A    between atoms: _543  and  _545
REMARK  234  A    between atoms: _545  and  _546
REMARK  235  A    between atoms: _545  and  _548
REMARK  236  A    between atoms: _548  and  _549
REMARK  237  A    between atoms: _552  and  _554
REMARK  238  A    between atoms: _554  and  _555
REMARK  239  A    between atoms: _554  and  _557
REMARK  240  A    between atoms: _557  and  _558
REMARK  241  A    between atoms: _564  and  _566
REMARK  242  A    between atoms: _566  and  _567
REMARK  243  A    between atoms: _569  and  _571
REMARK  244  A    between atoms: _571  and  _572
REMARK  245  A    between atoms: _571  and  _574
REMARK  246  A    between atoms: _574  and  _575
REMARK  247  A    between atoms: _578  and  _580
REMARK  248  A    between atoms: _580  and  _581
REMARK  249  A    between atoms: _580  and  _583
REMARK  250  A    between atoms: _583  and  _584
REMARK  251  A    between atoms: _586  and  _588
REMARK  252  A    between atoms: _588  and  _589
REMARK  253  A    between atoms: _588  and  _591
REMARK  254  A    between atoms: _591  and  _592
REMARK  255  A    between atoms: _595  and  _597
REMARK  256  A    between atoms: _597  and  _598
REMARK  257  A    between atoms: _597  and  _600
REMARK  258  A    between atoms: _600  and  _601
REMARK  259  A    between atoms: _606  and  _608
REMARK  260  A    between atoms: _608  and  _609
REMARK  261  A    between atoms: _608  and  _611
REMARK  262  A    between atoms: _611  and  _612
REMARK  263  A    between atoms: _618  and  _620
REMARK  264  A    between atoms: _620  and  _621
REMARK  265  A    between atoms: _620  and  _623
REMARK  266  A    between atoms: _623  and  _624
REMARK  267  A    between atoms: _624  and  _625
REMARK  268  A    between atoms: _625  and  _626
REMARK  269  A    between atoms: _626  and  _627
REMARK                            x       y       z     vdW  Elec       q    Type
REMARK                         _______ _______ _______ _____ _____    ______ ____
ROOT
ATOM      1  C   LEU A   3      14.720  13.847  54.160  0.00  0.00    +0.241 C 
ATOM      2  N   LEU A   4      14.689  12.991  55.180  0.00  0.00    -0.297 N 
ATOM      3  H   LEU A   4      13.770  12.743  55.599  0.00  0.00    +0.150 HD
ATOM      4  O   LEU A   3      15.777  14.266  53.657  0.00  0.00    -0.273 OA
ENDROOT
BRANCH   2   5
ATOM      5  CA  LEU A   4      15.911  12.382  55.736  0.00  0.00    +0.149 C 
BRANCH   5   6
ATOM      6  C   LEU A   4      16.101  10.988  55.156  0.00  0.00    +0.241 C 
ATOM      7  N   LEU A   5      17.342  10.545  55.097  0.00  0.00    -0.297 N 
ATOM      8  H   LEU A   5      18.124  11.193  55.323  0.00  0.00    +0.150 HD
ATOM      9  O   LEU A   4      15.143  10.338  54.755  0.00  0.00    -0.273 OA
BRANCH   7  10
ATOM     10  CA  LEU A   5      17.643   9.174  54.724  0.00  0.00    +0.149 C 
BRANCH  10  11
ATOM     11  C   LEU A   5      17.817   8.360  55.995  0.00  0.00    +0.241 C 
ATOM     12  O   LEU A   5      18.433   8.807  56.961  0.00  0.00    -0.273 OA
ATOM     13  N   GLU A   6      17.247   7.168  55.978  0.00  0.00    -0.298 N 
ATOM     14  H   GLU A   6      16.859   6.814  55.081  0.00  0.00    +0.150 HD
BRANCH  13  15
ATOM     15  CA  GLU A   6      17.140   6.327  57.168  0.00  0.00    +0.137 C 
BRANCH  15  16
ATOM     16  C   GLU A   6      18.487   5.931  57.744  0.00  0.00    +0.227 C 
ATOM     17  O   GLU A   6      18.665   5.898  58.966  0.00  0.00    -0.286 OA
ENDBRANCH  15  16
BRANCH  15  18
ATOM     18  CB  GLU A   6      16.334   5.064  56.838  0.00  0.00    +0.039 C 
BRANCH  18  19
ATOM     19  CG  GLU A   6      15.907   4.285  58.063  0.00  0.00    +0.116 C 
BRANCH  19  20
ATOM     20  CD  GLU A   6      14.999   3.133  57.720  0.00  0.00    +0.365 C 
ATOM     21  OE2 GLU A   6      15.355   1.986  58.038  0.00  0.00    -0.246 OA
ATOM     22  OE1 GLU A   6      13.938   3.377  57.129  0.00  0.00    -0.246 OA
ENDBRANCH  19  20
ENDBRANCH  18  19
ENDBRANCH  15  18
ENDBRANCH  13  15
ENDBRANCH  10  11
BRANCH  10  23
ATOM     23  CB  LEU A   5      18.884   9.097  53.835  0.00  0.00    +0.029 C 
BRANCH  23  24
ATOM     24  CG  LEU A   5      18.636   9.729  52.452  0.00  0.00    +0.002 C 
ATOM     25  CD2 LEU A   5      19.966  10.104  51.834  0.00  0.00    +0.000 C 
ATOM     26  CD1 LEU A   5      17.842   8.805  51.535  0.00  0.00    +0.000 C 
ENDBRANCH  23  24
ENDBRANCH  10  23
ENDBRANCH   7  10
ENDBRANCH   5   6
BRANCH   5  27
ATOM     27  CB  LEU A   4      15.823  12.272  57.258  0.00  0.00    +0.029 C 
BRANCH  27  28
ATOM     28  CG  LEU A   4      15.508  13.545  58.041  0.00  0.00    +0.002 C 
ATOM     29  CD2 LEU A   4      15.541  13.209  59.529  0.00  0.00    +0.000 C 
ATOM     30  CD1 LEU A   4      16.489  14.675  57.703  0.00  0.00    +0.000 C 
ENDBRANCH  27  28
ENDBRANCH   5  27
ENDBRANCH   2   5
BRANCH   1  31
ATOM     31  CA  LEU A   3      13.372  14.334  53.650  0.00  0.00    +0.149 C 
BRANCH  31  34
ATOM     32  C   ASN A   2      12.190  15.853  55.183  0.00  0.00    +0.241 C 
ATOM     33  O   ASN A   2      11.465  14.954  55.599  0.00  0.00    -0.273 OA
ATOM     34  N   LEU A   3      13.103  15.656  54.232  0.00  0.00    -0.297 N 
ATOM     35  H   LEU A   3      13.648  16.472  53.888  0.00  0.00    +0.150 HD
BRANCH  32  36
ATOM     36  CA  ASN A   2      12.047  17.266  55.746  0.00  0.00    +0.158 C 
BRANCH  36  39
ATOM     37  C   GLU A   1      14.152  18.488  55.504  0.00  0.00    +0.238 C 
ATOM     38  O   GLU A   1      14.607  17.998  56.526  0.00  0.00    -0.274 OA
ATOM     39  N   ASN A   2      12.910  18.251  55.088  0.00  0.00    -0.297 N 
ATOM     40  H   ASN A   2      12.541  18.780  54.272  0.00  0.00    +0.150 HD
BRANCH  37  41
ATOM     41  CA  GLU A   1      15.003  19.448  54.688  0.00  0.00    +0.145 C 
BRANCH  41  42
ATOM     42  N   GLU A   1      14.590  19.654  53.282  0.00  0.00    -0.238 NA
ATOM     43  H   GLU A   1      14.324  20.612  52.975  0.00  0.00    +0.142 HD
ENDBRANCH  41  42
BRANCH  41  44
ATOM     44  CB  GLU A   1      15.010  20.782  55.441  0.00  0.00    +0.038 C 
BRANCH  44  45
ATOM     45  CG  GLU A   1      16.229  21.638  55.166  0.00  0.00    +0.116 C 
BRANCH  45  46
ATOM     46  CD  GLU A   1      16.375  22.778  56.161  0.00  0.00    +0.365 C 
ATOM     47  OE2 GLU A   1      15.399  23.072  56.899  0.00  0.00    -0.246 OA
ATOM     48  OE1 GLU A   1      17.476  23.371  56.198  0.00  0.00    -0.246 OA
ENDBRANCH  45  46
ENDBRANCH  44  45
ENDBRANCH  41  44
ENDBRANCH  37  41
ENDBRANCH  36  39
BRANCH  36  49
ATOM     49  CB  ASN A   2      10.576  17.715  55.663  0.00  0.00    +0.114 C 
BRANCH  49  50
ATOM     50  CG  ASN A   2      10.280  18.941  56.518  0.00  0.00    +0.222 C 
ATOM     51  OD1 ASN A   2      10.646  19.009  57.684  0.00  0.00    -0.275 OA
ATOM     52  ND2 ASN A   2       9.598  19.904  55.938  0.00  0.00    -0.329 N 
ATOM     53 HD21 ASN A   2       9.351  20.761  56.473  0.00  0.00    +0.145 HD
ATOM     54 HD22 ASN A   2       9.305  19.808  54.945  0.00  0.00    +0.145 HD
ENDBRANCH  49  50
ENDBRANCH  36  49
ENDBRANCH  32  36
ENDBRANCH  31  34
BRANCH  31  55
ATOM     55  CB  LEU A   3      13.369  14.393  52.115  0.00  0.00    +0.029 C 
BRANCH  55  56
ATOM     56  CG  LEU A   3      12.133  15.047  51.472  0.00  0.00    +0.002 C 
ATOM     57  CD2 LEU A   3      10.881  14.270  51.856  0.00  0.00    +0.000 C 
ATOM     58  CD1 LEU A   3      12.257  15.130  49.955  0.00  0.00    +0.000 C 
ENDBRANCH  55  56
ENDBRANCH  31  55
ENDBRANCH   1  31
TORSDOF 26
REMARK  Name = ../refined-set-2016/3v51/3v51_pocket.pdb
REMARK  269 active torsions:
REMARK  status: ('A' for Active; 'I' for Inactive)
REMARK    1  A    between atoms: _1  and  _3
REMARK    2  A    between atoms: _3  and  _4
REMARK    3  A    between atoms: _3  and  _6
REMARK    4  A    between atoms: _6  and  _7
REMARK    5  A    between atoms: _7  and  _8
REMARK    6  A    between atoms: _8  and  _9
REMARK    7  A    between atoms: _18  and  _20
REMARK    8  A    between atoms: _20  and  _21
REMARK    9  A    between atoms: _20  and  _23
REMARK   10  A    between atoms: _26  and  _28
REMARK   11  A    between atoms: _28  and  _29
REMARK   12  A    between atoms: _28  and  _31
REMARK   13  A    between atoms: _31  and  _32
REMARK   14  A    between atoms: _35  and  _37
REMARK   15  A    between atoms: _37  and  _38
REMARK   16  A    between atoms: _40  and  _42
REMARK   17  A    between atoms: _42  and  _43
REMARK   18  A    between atoms: _42  and  _45
REMARK   19  A    between atoms: _45  and  _46
REMARK   20  A    between atoms: _46  and  _47
REMARK   21  A    between atoms: _47  and  _48
REMARK   22  A    between atoms: _48  and  _49
REMARK   23  A    between atoms: _53  and  _55
REMARK   24  A    between atoms: _55  and  _56
REMARK   25  A    between atoms: _58  and  _60
REMARK   26  A    between atoms: _60  and  _61
REMARK   27  A    between atoms: _60  and  _63
REMARK   28  A    between atoms: _63  and  _64
REMARK   29  A    between atoms: _68  and  _69
REMARK   30  A    between atoms: _71  and  _73
REMARK   31  A    between atoms: _73  and  _74
REMARK   32  A    between atoms: _73  and  _76
REMARK   33  A    between atoms: _76  and  _77
REMARK   34  A    between atoms: _77  and  _78
REMARK   35  A    between atoms: _81  and  _83
REMARK   36  A    between atoms: _83  and  _84
REMARK   37  A    between atoms: _83  and  _86
REMARK   38  A    between atoms: _89  and  _91
REMARK   39  A    between atoms: _91  and  _92
REMARK   40  A    between atoms: _91  and  _94
REMARK   41  A    between atoms: _94  and  _95
REMARK   42  A    between atoms: _98  and  _100
REMARK   43  A    between atoms: _100  and  _101
REMARK   44  A    between atoms: _100  and  _103
REMARK   45  A    between atoms: _103  and  _104
REMARK   46  A    between atoms: _107  and  _109
REMARK   47  A    between atoms: _109  and  _110
REMARK   48  A    between atoms: _109  and  _112
REMARK   49  A    between atoms: _114  and  _116
REMARK   50  A    between atoms: _116  and  _117
REMARK   51  A    between atoms: _120  and  _122
REMARK   52  A    between atoms: _122  and  _123
REMARK   53  A    between atoms: _122  and  _125
REMARK   54  A    between atoms: _128  and  _130
REMARK   55  A    between atoms: _130  and  _131
REMARK   56  A    between atoms: _130  and  _133
REMARK   57  A    between atoms: _133  and  _134
REMARK   58  A    between atoms: _134  and  _135
REMARK   59  A    between atoms: _135  and  _136
REMARK   60  A    between atoms: _136  and  _137
REMARK   61  A    between atoms: _141  and  _143
REMARK   62  A    between atoms: _143  and  _144
REMARK   63  A    between atoms: _143  and  _146
REMARK   64  A    between atoms: _149  and  _151
REMARK   65  A    between atoms: _151  and  _152
REMARK   66  A    between atoms: _151  and  _154
REMARK   67  A    between atoms: _154  and  _155
REMARK   68  A    between atoms: _158  and  _160
REMARK   69  A    between atoms: _160  and  _161
REMARK   70  A    between atoms: _160  and  _163
REMARK   71  A    between atoms: _163  and  _164
REMARK   72  A    between atoms: _167  and  _169
REMARK   73  A    between atoms: _169  and  _170
REMARK   74  A    between atoms: _169  and  _172
REMARK   75  A    between atoms: _172  and  _173
REMARK   76  A    between atoms: _175  and  _177
REMARK   77  A    between atoms: _177  and  _178
REMARK   78  A    between atoms: _177  and  _180
REMARK   79  A    between atoms: _180  and  _181
REMARK   80  A    between atoms: _184  and  _186
REMARK   81  A    between atoms: _186  and  _187
REMARK   82  A    between atoms: _186  and  _189
REMARK   83  A    between atoms: _189  and  _190
REMARK   84  A    between atoms: _193  and  _195
REMARK   85  A    between atoms: _195  and  _196
REMARK   86  A    between atoms: _195  and  _198
REMARK   87  A    between atoms: _198  and  _199
REMARK   88  A    between atoms: _199  and  _200
REMARK   89  A    between atoms: _203  and  _205
REMARK   90  A    between atoms: _205  and  _206
REMARK   91  A    between atoms: _205  and  _208
REMARK   92  A    between atoms: _211  and  _213
REMARK   93  A    between atoms: _213  and  _214
REMARK   94  A    between atoms: _213  and  _216
REMARK   95  A    between atoms: _216  and  _217
REMARK   96  A    between atoms: _217  and  _218
REMARK   97  A    between atoms: _223  and  _225
REMARK   98  A    between atoms: _225  and  _226
REMARK   99  A    between atoms: _225  and  _228
REMARK  100  A    between atoms: _228  and  _229
REMARK  101  A    between atoms: _232  and  _234
REMARK  102  A    between atoms: _234  and  _235
REMARK  103  A    between atoms: _234  and  _237
REMARK  104  A    between atoms: _237  and  _238
REMARK  105  A    between atoms: _238  and  _239
REMARK  106  A    between atoms: _239  and  _240
REMARK  107  A    between atoms: _240  and  _241
REMARK  108  A    between atoms: _245  and  _247
REMARK  109  A    between atoms: _247  and  _248
REMARK  110  A    between atoms: _247  and  _250
REMARK  111  A    between atoms: _250  and  _251
REMARK  112  A    between atoms: _251  and  _252
REMARK  113  A    between atoms: _254  and  _256
REMARK  114  A    between atoms: _256  and  _257
REMARK  115  A    between atoms: _256  and  _259
REMARK  116  A    between atoms: _259  and  _260
REMARK  117  A    between atoms: _260  and  _261
REMARK  118  A    between atoms: _261  and  _262
REMARK  119  A    between atoms: _262  and  _263
REMARK  120  A    between atoms: _267  and  _269
REMARK  121  A    between atoms: _269  and  _270
REMARK  122  A    between atoms: _269  and  _272
REMARK  123  A    between atoms: _272  and  _273
REMARK  124  A    between atoms: _276  and  _278
REMARK  125  A    between atoms: _278  and  _279
REMARK  126  A    between atoms: _278  and  _281
REMARK  127  A    between atoms: _281  and  _282
REMARK  128  A    between atoms: _287  and  _288
REMARK  129  A    between atoms: _290  and  _292
REMARK  130  A    between atoms: _292  and  _293
REMARK  131  A    between atoms: _292  and  _295
REMARK  132  A    between atoms: _295  and  _296
REMARK  133  A    between atoms: _296  and  _297
REMARK  134  A    between atoms: _300  and  _302
REMARK  135  A    between atoms: _302  and  _303
REMARK  136  A    between atoms: _302  and  _305
REMARK  137  A    between atoms: _305  and  _306
REMARK  138  A    between atoms: _312  and  _314
REMARK  139  A    between atoms: _314  and  _315
REMARK  140  A    between atoms: _314  and  _317
REMARK  141  A    between atoms: _317  and  _318
REMARK  142  A    between atoms: _324  and  _326
REMARK  143  A    between atoms: _326  and  _327
REMARK  144  A    between atoms: _326  and  _329
REMARK  145  A    between atoms: _329  and  _330
REMARK  146  A    between atoms: _336  and  _338
REMARK  147  A    between atoms: _338  and  _339
REMARK  148  A    between atoms: _338  and  _341
REMARK  149  A    between atoms: _341  and  _342
REMARK  150  A    between atoms: _347  and  _348
REMARK  151  A    between atoms: _350  and  _352
REMARK  152  A    between atoms: _352  and  _353
REMARK  153  A    between atoms: _352  and  _355
REMARK  154  A    between atoms: _355  and  _356
REMARK  155  A    between atoms: _359  and  _361
REMARK  156  A    between atoms: _361  and  _362
REMARK  157  A    between atoms: _361  and  _364
REMARK  158  A    between atoms: _367  and  _369
REMARK  159  A    between atoms: _369  and  _370
REMARK  160  A    between atoms: _372  and  _374
REMARK  161  A    between atoms: _374  and  _375
REMARK  162  A    between atoms: _374  and  _377
REMARK  163  A    between atoms: _377  and  _378
REMARK  164  A    between atoms: _378  and  _379
REMARK  165  A    between atoms: _382  and  _384
REMARK  166  A    between atoms: _384  and  _385
REMARK  167  A    between atoms: _384  and  _387
REMARK  168  A    between atoms: _390  and  _392
REMARK  169  A    between atoms: _392  and  _393
REMARK  170  A    between atoms: _392  and  _395
REMARK  171  A    between atoms: _395  and  _396
REMARK  172  A    between atoms: _401  and  _402
REMARK  173  A    between atoms: _404  and  _406
REMARK  174  A    between atoms: _406  and  _407
REMARK  175  A    between atoms: _406  and  _409
REMARK  176  A    between atoms: _409  and  _410
REMARK  177  A    between atoms: _413  and  _415
REMARK  178  A    between atoms: _415  and  _416
REMARK  179  A    between atoms: _418  and  _420
REMARK  180  A    between atoms: _420  and  _421
REMARK  181  A    between atoms: _423  and  _425
REMARK  182  A    between atoms: _425  and  _426
REMARK  183  A    between atoms: _425  and  _428
REMARK  184  A    between atoms: _428  and  _429
REMARK  185  A    between atoms: _429  and  _430
REMARK  186  A    between atoms: _433  and  _435
REMARK  187  A    between atoms: _435  and  _436
REMARK  188  A    between atoms: _435  and  _438
REMARK  189  A    between atoms: _438  and  _439
REMARK  190  A    between atoms: _442  and  _444
REMARK  191  A    between atoms: _444  and  _445
REMARK  192  A    between atoms: _444  and  _447
REMARK  193  A    between atoms: _450  and  _452
REMARK  194  A    between atoms: _452  and  _453
REMARK  195  A    between atoms: _452  and  _455
REMARK  196  A    between atoms: _455  and  _456
REMARK  197  A    between atoms: _456  and  _457
REMARK  198  A    between atoms: _460  and  _462
REMARK  199  A    between atoms: _462  and  _463
REMARK  200  A    between atoms: _462  and  _465
REMARK  201  A    between atoms: _465  and  _466
REMARK  202  A    between atoms: _471  and  _473
REMARK  203  A    between atoms: _473  and  _474
REMARK  204  A    between atoms: _473  and  _476
REMARK  205  A    between atoms: _476  and  _477
REMARK  206  A    between atoms: _480  and  _482
REMARK  207  A    between atoms: _482  and  _483
REMARK  208  A    between atoms: _482  and  _485
REMARK  209  A    between atoms: _485  and  _486
REMARK  210  A    between atoms: _489  and  _491
REMARK  211  A    between atoms: _491  and  _492
REMARK  212  A    between atoms: _491  and  _494
REMARK  213  A    between atoms: _494  and  _495
REMARK  214  A    between atoms: _498  and  _500
REMARK  215  A    between atoms: _500  and  _501
REMARK  216  A    between atoms: _500  and  _503
REMARK  217  A    between atoms: _503  and  _504
REMARK  218  A    between atoms: _504  and  _505
REMARK  219  A    between atoms: _508  and  _510
REMARK  220  A    between atoms: _510  and  _511
REMARK  221  A    between atoms: _510  and  _513
REMARK  222  A    between atoms: _513  and  _514
REMARK  223  A    between atoms: _514  and  _515
REMARK  224  A    between atoms: _515  and  _516
REMARK  225  A    between atoms: _525  and  _527
REMARK  226  A    between atoms: _527  and  _528
REMARK  227  A    between atoms: _527  and  _530
REMARK  228  A    between atoms: _530  and  _531
REMARK  229  A    between atoms: _534  and  _536
REMARK  230  A    between atoms: _536  and  _537
REMARK  231  A    between atoms: _536  and  _539
REMARK  232  A    between atoms: _539  and  _540
REMARK  233  A    between atoms: _543  and  _545
REMARK  234  A    between atoms: _545  and  _546
REMARK  235  A    between atoms: _545  and  _548
REMARK  236  A    between atoms: _548  and  _549
REMARK  237  A    between atoms: _552  and  _554
REMARK  238  A    between atoms: _554  and  _555
REMARK  239  A    between atoms: _554  and  _557
REMARK  240  A    between atoms: _557  and  _558
REMARK  241  A    between atoms: _564  and  _566
REMARK  242  A    between atoms: _566  and  _567
REMARK  243  A    between atoms: _569  and  _571
REMARK  244  A    between atoms: _571  and  _572
REMARK  245  A    between atoms: _571  and  _574
REMARK  246  A    between atoms: _574  and  _575
REMARK  247  A    between atoms: _578  and  _580
REMARK  248  A    between atoms: _580  and  _581
REMARK  249  A    between atoms: _580  and  _583
REMARK  250  A    between atoms: _583  and  _584
REMARK  251  A    between atoms: _586  and  _588
REMARK  252  A    between atoms: _588  and  _589
REMARK  253  A    between atoms: _588  and  _591
REMARK  254  A    between atoms: _591  and  _592
REMARK  255  A    between atoms: _595  and  _597
REMARK  256  A    between atoms: _597  and  _598
REMARK  257  A    between atoms: _597  and  _600
REMARK  258  A    between atoms: _600  and  _601
REMARK  259  A    between atoms: _606  and  _608
REMARK  260  A    between atoms: _608  and  _609
REMARK  261  A    between atoms: _608  and  _611
REMARK  262  A    between atoms: _611  and  _612
REMARK  263  A    between atoms: _618  and  _620
REMARK  264  A    between atoms: _620  and  _621
REMARK  265  A    between atoms: _620  and  _623
REMARK  266  A    between atoms: _623  and  _624
REMARK  267  A    between atoms: _624  and  _625
REMARK  268  A    between atoms: _625  and  _626
REMARK  269  A    between atoms: _626  and  _627
REMARK                            x       y       z     vdW  Elec       q    Type
REMARK                         _______ _______ _______ _____ _____    ______ ____
ROOT
ATOM      1  C   PHE A   5       3.046  15.848  60.582  0.00  0.00    +0.241 C 
ATOM      2  O   PHE A   5       3.328  15.418  61.701  0.00  0.00    -0.273 OA
ATOM      3  N   GLY A   6       2.030  16.665  60.379  0.00  0.00    -0.295 N 
ATOM      4  H   GLY A   6       1.888  17.081  59.436  0.00  0.00    +0.150 HD
ENDROOT
BRANCH   3   5
ATOM      5  CA  GLY A   6       1.109  16.992  61.450  0.00  0.00    +0.176 C 
BRANCH   5   6
ATOM      6  C   GLY A   6       1.490  18.179  62.313  0.00  0.00    +0.243 C 
ATOM      7  O   GLY A   6       0.617  18.722  62.986  0.00  0.00    -0.273 OA
ATOM      8  N   LEU A   7       2.757  18.603  62.319  0.00  0.00    -0.297 N 
ATOM      9  H   LEU A   7       3.463  18.147  61.707  0.00  0.00    +0.150 HD
BRANCH   8  10
ATOM     10  CA  LEU A   7       3.149  19.720  63.196  0.00  0.00    +0.149 C 
BRANCH  10  11
ATOM     11  C   LEU A   7       2.474  21.046  62.859  0.00  0.00    +0.241 C 
ATOM     12  O   LEU A   7       2.026  21.759  63.764  0.00  0.00    -0.273 OA
ATOM     13  N   SER A   8       2.375  21.376  61.577  0.00  0.00    -0.295 N 
ATOM     14  H   SER A   8       2.684  20.701  60.849  0.00  0.00    +0.150 HD
BRANCH  13  15
ATOM     15  CA  SER A   8       1.835  22.680  61.173  0.00  0.00    +0.178 C 
BRANCH  15  16
ATOM     16  C   SER A   8       0.351  22.825  61.473  0.00  0.00    +0.243 C 
ATOM     17  N   THR A   9      -0.340  21.699  61.651  0.00  0.00    -0.295 N 
ATOM     18  H   THR A   9       0.144  20.786  61.537  0.00  0.00    +0.150 HD
ATOM     19  O   SER A   8      -0.168  23.940  61.495  0.00  0.00    -0.273 OA
BRANCH  17  20
ATOM     20  CA  THR A   9      -1.742  21.711  61.997  0.00  0.00    +0.176 C 
BRANCH  20  21
ATOM     21  C   THR A   9      -1.870  22.157  63.452  0.00  0.00    +0.243 C 
ATOM     22  N   HIS A  10      -0.899  21.778  64.280  0.00  0.00    -0.297 N 
ATOM     23  H   HIS A  10      -0.068  21.282  63.900  0.00  0.00    +0.150 HD
ATOM     24  O   THR A   9      -2.800  22.869  63.813  0.00  0.00    -0.273 OA
BRANCH  22  25
ATOM     25  CA  HIS A  10      -0.982  22.050  65.726  0.00  0.00    +0.155 C 
BRANCH  25  26
ATOM     26  C   HIS A  10      -0.187  23.200  66.256  0.00  0.00    +0.241 C 
ATOM     27  O   HIS A  10      -0.534  23.728  67.311  0.00  0.00    -0.273 OA
ATOM     28  N   PHE A  11       0.854  23.637  65.551  0.00  0.00    -0.298 N 
ATOM     29  H   PHE A  11       1.082  23.183  64.643  0.00  0.00    +0.150 HD
BRANCH  28  30
ATOM     30  CA  PHE A  11       1.686  24.746  66.030  0.00  0.00    +0.141 C 
BRANCH  30  31
ATOM     31  C   PHE A  11       1.888  25.813  64.953  0.00  0.00    +0.227 C 
ATOM     32  O   PHE A  11       1.969  25.493  63.784  0.00  0.00    -0.286 OA
ENDBRANCH  30  31
BRANCH  30  33
ATOM     33  CB  PHE A  11       3.039  24.220  66.483  0.00  0.00    +0.054 C 
BRANCH  33  34
ATOM     34  CG  PHE A  11       2.953  23.185  67.572  0.00  0.00    -0.020 A 
ATOM     35  CD2 PHE A  11       2.936  23.565  68.912  0.00  0.00    -0.004 A 
ATOM     36  CE2 PHE A  11       2.877  22.604  69.918  0.00  0.00    -0.000 A 
ATOM     37  CZ  PHE A  11       2.816  21.258  69.593  0.00  0.00    -0.000 A 
ATOM     38  CE1 PHE A  11       2.817  20.869  68.264  0.00  0.00    -0.000 A 
ATOM     39  CD1 PHE A  11       2.887  21.829  67.263  0.00  0.00    -0.004 A 
ENDBRANCH  33  34
ENDBRANCH  30  33
ENDBRANCH  28  30
ENDBRANCH  25  26
BRANCH  25  40
ATOM     40  CB  HIS A  10      -0.690  20.761  66.504  0.00  0.00    +0.076 C 
BRANCH  40  41
ATOM     41  CG  HIS A  10      -1.711  19.693  66.237  0.00  0.00    +0.082 A 
ATOM     42  ND1 HIS A  10      -2.933  19.716  66.797  0.00  0.00    -0.227 NA
ATOM     43  CE1 HIS A  10      -3.665  18.693  66.314  0.00  0.00    +0.199 A 
ATOM     44  NE2 HIS A  10      -2.922  18.033  65.422  0.00  0.00    -0.221 NA
ATOM     45  CD2 HIS A  10      -1.711  18.625  65.342  0.00  0.00    +0.115 A 
ENDBRANCH  40  41
ENDBRANCH  25  40
ENDBRANCH  22  25
ENDBRANCH  20  21
BRANCH  20  46
ATOM     46  CB  THR A   9      -2.344  20.313  61.832  0.00  0.00    +0.137 C 
ATOM     47  CG2 THR A   9      -3.816  20.312  62.186  0.00  0.00    +0.034 C 
BRANCH  46  48
ATOM     48  OG1 THR A   9      -2.140  19.850  60.485  0.00  0.00    -0.382 OA
ATOM     49  HG1 THR A   9      -2.531  18.946  60.385  0.00  0.00    +0.210 HD
ENDBRANCH  46  48
ENDBRANCH  20  46
ENDBRANCH  17  20
ENDBRANCH  15  16
BRANCH  15  50
ATOM     50  CB  SER A   8       2.065  22.912  59.684  0.00  0.00    +0.166 C 
BRANCH  50  51
ATOM     51  OG  SER A   8       1.367  21.940  58.939  0.00  0.00    -0.380 OA
ATOM     52  H   SER A   8       1.694  21.039  59.186  0.00  0.00    +0.211 HD
ENDBRANCH  50  51
ENDBRANCH  15  50
ENDBRANCH  13  15
ENDBRANCH  10  11
BRANCH  10  53
ATOM     53  CB  LEU A   7       4.668  19.908  63.253  0.00  0.00    +0.029 C 
BRANCH  53  54
ATOM     54  CG  LEU A   7       5.394  18.903  64.163  0.00  0.00    +0.002 C 
ATOM     55  CD2 LEU A   7       4.899  19.015  65.601  0.00  0.00    +0.000 C 
ATOM     56  CD1 LEU A   7       6.891  19.142  64.047  0.00  0.00    +0.000 C 
ENDBRANCH  53  54
ENDBRANCH  10  53
ENDBRANCH   8  10
ENDBRANCH   5   6
ENDBRANCH   3   5
BRANCH   1  57
ATOM     57  CA  PHE A   5       3.885  15.492  59.353  0.00  0.00    +0.153 C 
BRANCH  57  60
ATOM     58  C   ASP A   4       5.786  16.776  60.088  0.00  0.00    +0.241 C 
ATOM     59  O   ASP A   4       5.038  17.754  60.212  0.00  0.00    -0.273 OA
ATOM     60  N   PHE A   5       5.320  15.623  59.631  0.00  0.00    -0.297 N 
ATOM     61  H   PHE A   5       5.963  14.821  59.471  0.00  0.00    +0.150 HD
BRANCH  58  62
ATOM     62  CA  ASP A   4       7.269  16.852  60.550  0.00  0.00    +0.160 C 
BRANCH  62  64
ATOM     63  C   ILE A   3       8.752  15.502  59.060  0.00  0.00    +0.241 C 
ATOM     64  N   ASP A   4       8.156  15.718  60.231  0.00  0.00    -0.297 N 
ATOM     65  H   ASP A   4       8.332  15.026  60.987  0.00  0.00    +0.150 HD
ATOM     66  O   ILE A   3       8.517  16.170  58.027  0.00  0.00    -0.273 OA
BRANCH  63  67
ATOM     67  CA  ILE A   3       9.747  14.314  59.046  0.00  0.00    +0.149 C 
BRANCH  67  70
ATOM     68  C   ILE A   2       9.371  12.649  57.305  0.00  0.00    +0.241 C 
ATOM     69  O   ILE A   2       8.784  11.911  58.065  0.00  0.00    -0.273 OA
ATOM     70  N   ILE A   3       9.936  13.783  57.698  0.00  0.00    -0.297 N 
ATOM     71  H   ILE A   3      10.531  14.310  57.027  0.00  0.00    +0.150 HD
BRANCH  68  72
ATOM     72  CA  ILE A   2       9.559  12.267  55.853  0.00  0.00    +0.148 C 
BRANCH  72  75
ATOM     73  C   ARG A   1      11.382  10.658  55.977  0.00  0.00    +0.238 C 
ATOM     74  O   ARG A   1      12.216  11.540  56.111  0.00  0.00    -0.274 OA
ATOM     75  N   ILE A   2      10.095  10.904  55.817  0.00  0.00    -0.297 N 
ATOM     76  H   ILE A   2       9.444  10.108  55.661  0.00  0.00    +0.150 HD
BRANCH  73  77
ATOM     77  CA  ARG A   1      11.801   9.208  55.947  0.00  0.00    +0.145 C 
BRANCH  77  78
ATOM     78  N   ARG A   1      12.771   9.056  54.877  0.00  0.00    -0.238 NA
ATOM     79  H   ARG A   1      13.684   9.547  54.957  0.00  0.00    +0.142 HD
ENDBRANCH  77  78
BRANCH  77  80
ATOM     80  CB  ARG A   1      12.403   8.836  57.304  0.00  0.00    +0.030 C 
BRANCH  80  81
ATOM     81  CG  ARG A   1      12.765   7.375  57.443  0.00  0.00    +0.045 C 
BRANCH  81  82
ATOM     82  CD  ARG A   1      11.539   6.561  57.877  0.00  0.00    +0.174 C 
BRANCH  82  83
ATOM     83  NE  ARG A   1      11.895   5.198  58.210  0.00  0.00    -0.265 N 
ATOM     84  CZ  ARG A   1      11.057   4.265  58.691  0.00  0.00    +0.342 C 
ATOM     85  NH2 ARG A   1       9.783   4.542  58.951  0.00  0.00    -0.292 N 
ATOM     86 HH21 ARG A   1       9.155   3.801  59.323  0.00  0.00    +0.255 HD
ATOM     87 HH22 ARG A   1       9.414   5.500  58.782  0.00  0.00    +0.255 HD
ATOM     88  NH1 ARG A   1      11.510   3.030  58.935  0.00  0.00    -0.292 N 
ATOM     89 HH11 ARG A   1      10.865   2.304  59.307  0.00  0.00    +0.255 HD
ATOM     90 HH12 ARG A   1      12.507   2.796  58.752  0.00  0.00    +0.255 HD
ATOM     91  HE  ARG A   1      12.886   4.917  58.064  0.00  0.00    +0.259 HD
ENDBRANCH  82  83
ENDBRANCH  81  82
ENDBRANCH  80  81
ENDBRANCH  77  80
ENDBRANCH  73  77
ENDBRANCH  72  75
BRANCH  72  92
ATOM     92  CB  ILE A   2       8.219  12.382  55.135  0.00  0.00    +0.027 C 
ATOM     93  CG2 ILE A   2       7.716  13.826  55.161  0.00  0.00    +0.002 C 
BRANCH  92  94
ATOM     94  CG1 ILE A   2       8.355  11.946  53.677  0.00  0.00    +0.002 C 
ATOM     95  CD1 ILE A   2       7.036  11.999  52.938  0.00  0.00    +0.000 C 
ENDBRANCH  92  94
ENDBRANCH  72  92
ENDBRANCH  68  72
ENDBRANCH  67  70
BRANCH  67  96
ATOM     96  CB  ILE A   3      11.094  14.725  59.696  0.00  0.00    +0.027 C 
ATOM     97  CG2 ILE A   3      11.950  13.499  60.028  0.00  0.00    +0.002 C 
BRANCH  96  98
ATOM     98  CG1 ILE A   3      11.877  15.671  58.813  0.00  0.00    +0.002 C 
ATOM     99  CD1 ILE A   3      13.028  16.381  59.521  0.00  0.00    +0.000 C 
ENDBRANCH  96  98
ENDBRANCH  67  96
ENDBRANCH  63  67
ENDBRANCH  62  64
BRANCH  62 100
ATOM    100  CB  ASP A   4       7.891  18.188  60.131  0.00  0.00    +0.143 C 
BRANCH 100 101
ATOM    101  CG  ASP A   4       9.030  18.634  61.048  0.00  0.00    +0.367 C 
ATOM    102  OD2 ASP A   4       9.139  18.154  62.205  0.00  0.00    -0.246 OA
ATOM    103  OD1 ASP A   4       9.818  19.490  60.592  0.00  0.00    -0.246 OA
ENDBRANCH 100 101
ENDBRANCH  62 100
ENDBRANCH  58  62
ENDBRANCH  57  60
BRANCH  57 104
ATOM    104  CB  PHE A   5       3.537  14.098  58.873  0.00  0.00    +0.055 C 
BRANCH 104 105
ATOM    105  CG  PHE A   5       3.279  14.010  57.393  0.00  0.00    -0.020 A 
ATOM    106  CD2 PHE A   5       2.061  14.437  56.857  0.00  0.00    -0.004 A 
ATOM    107  CE2 PHE A   5       1.816  14.354  55.488  0.00  0.00    -0.000 A 
ATOM    108  CZ  PHE A   5       2.767  13.798  54.661  0.00  0.00    -0.000 A 
ATOM    109  CE1 PHE A   5       3.973  13.386  55.187  0.00  0.00    -0.000 A 
ATOM    110  CD1 PHE A   5       4.215  13.481  56.549  0.00  0.00    -0.004 A 
ENDBRANCH 104 105
ENDBRANCH  57 104
ENDBRANCH   1  57
TORSDOF 44
REMARK  Name = ../refined-set-2016/3v51/3v51_pocket.pdb
REMARK  269 active torsions:
REMARK  status: ('A' for Active; 'I' for Inactive)
REMARK    1  A    between atoms: _1  and  _3
REMARK    2  A    between atoms: _3  and  _4
REMARK    3  A    between atoms: _3  and  _6
REMARK    4  A    between atoms: _6  and  _7
REMARK    5  A    between atoms: _7  and  _8
REMARK    6  A    between atoms: _8  and  _9
REMARK    7  A    between atoms: _18  and  _20
REMARK    8  A    between atoms: _20  and  _21
REMARK    9  A    between atoms: _20  and  _23
REMARK   10  A    between atoms: _26  and  _28
REMARK   11  A    between atoms: _28  and  _29
REMARK   12  A    between atoms: _28  and  _31
REMARK   13  A    between atoms: _31  and  _32
REMARK   14  A    between atoms: _35  and  _37
REMARK   15  A    between atoms: _37  and  _38
REMARK   16  A    between atoms: _40  and  _42
REMARK   17  A    between atoms: _42  and  _43
REMARK   18  A    between atoms: _42  and  _45
REMARK   19  A    between atoms: _45  and  _46
REMARK   20  A    between atoms: _46  and  _47
REMARK   21  A    between atoms: _47  and  _48
REMARK   22  A    between atoms: _48  and  _49
REMARK   23  A    between atoms: _53  and  _55
REMARK   24  A    between atoms: _55  and  _56
REMARK   25  A    between atoms: _58  and  _60
REMARK   26  A    between atoms: _60  and  _61
REMARK   27  A    between atoms: _60  and  _63
REMARK   28  A    between atoms: _63  and  _64
REMARK   29  A    between atoms: _68  and  _69
REMARK   30  A    between atoms: _71  and  _73
REMARK   31  A    between atoms: _73  and  _74
REMARK   32  A    between atoms: _73  and  _76
REMARK   33  A    between atoms: _76  and  _77
REMARK   34  A    between atoms: _77  and  _78
REMARK   35  A    between atoms: _81  and  _83
REMARK   36  A    between atoms: _83  and  _84
REMARK   37  A    between atoms: _83  and  _86
REMARK   38  A    between atoms: _89  and  _91
REMARK   39  A    between atoms: _91  and  _92
REMARK   40  A    between atoms: _91  and  _94
REMARK   41  A    between atoms: _94  and  _95
REMARK   42  A    between atoms: _98  and  _100
REMARK   43  A    between atoms: _100  and  _101
REMARK   44  A    between atoms: _100  and  _103
REMARK   45  A    between atoms: _103  and  _104
REMARK   46  A    between atoms: _107  and  _109
REMARK   47  A    between atoms: _109  and  _110
REMARK   48  A    between atoms: _109  and  _112
REMARK   49  A    between atoms: _114  and  _116
REMARK   50  A    between atoms: _116  and  _117
REMARK   51  A    between atoms: _120  and  _122
REMARK   52  A    between atoms: _122  and  _123
REMARK   53  A    between atoms: _122  and  _125
REMARK   54  A    between atoms: _128  and  _130
REMARK   55  A    between atoms: _130  and  _131
REMARK   56  A    between atoms: _130  and  _133
REMARK   57  A    between atoms: _133  and  _134
REMARK   58  A    between atoms: _134  and  _135
REMARK   59  A    between atoms: _135  and  _136
REMARK   60  A    between atoms: _136  and  _137
REMARK   61  A    between atoms: _141  and  _143
REMARK   62  A    between atoms: _143  and  _144
REMARK   63  A    between atoms: _143  and  _146
REMARK   64  A    between atoms: _149  and  _151
REMARK   65  A    between atoms: _151  and  _152
REMARK   66  A    between atoms: _151  and  _154
REMARK   67  A    between atoms: _154  and  _155
REMARK   68  A    between atoms: _158  and  _160
REMARK   69  A    between atoms: _160  and  _161
REMARK   70  A    between atoms: _160  and  _163
REMARK   71  A    between atoms: _163  and  _164
REMARK   72  A    between atoms: _167  and  _169
REMARK   73  A    between atoms: _169  and  _170
REMARK   74  A    between atoms: _169  and  _172
REMARK   75  A    between atoms: _172  and  _173
REMARK   76  A    between atoms: _175  and  _177
REMARK   77  A    between atoms: _177  and  _178
REMARK   78  A    between atoms: _177  and  _180
REMARK   79  A    between atoms: _180  and  _181
REMARK   80  A    between atoms: _184  and  _186
REMARK   81  A    between atoms: _186  and  _187
REMARK   82  A    between atoms: _186  and  _189
REMARK   83  A    between atoms: _189  and  _190
REMARK   84  A    between atoms: _193  and  _195
REMARK   85  A    between atoms: _195  and  _196
REMARK   86  A    between atoms: _195  and  _198
REMARK   87  A    between atoms: _198  and  _199
REMARK   88  A    between atoms: _199  and  _200
REMARK   89  A    between atoms: _203  and  _205
REMARK   90  A    between atoms: _205  and  _206
REMARK   91  A    between atoms: _205  and  _208
REMARK   92  A    between atoms: _211  and  _213
REMARK   93  A    between atoms: _213  and  _214
REMARK   94  A    between atoms: _213  and  _216
REMARK   95  A    between atoms: _216  and  _217
REMARK   96  A    between atoms: _217  and  _218
REMARK   97  A    between atoms: _223  and  _225
REMARK   98  A    between atoms: _225  and  _226
REMARK   99  A    between atoms: _225  and  _228
REMARK  100  A    between atoms: _228  and  _229
REMARK  101  A    between atoms: _232  and  _234
REMARK  102  A    between atoms: _234  and  _235
REMARK  103  A    between atoms: _234  and  _237
REMARK  104  A    between atoms: _237  and  _238
REMARK  105  A    between atoms: _238  and  _239
REMARK  106  A    between atoms: _239  and  _240
REMARK  107  A    between atoms: _240  and  _241
REMARK  108  A    between atoms: _245  and  _247
REMARK  109  A    between atoms: _247  and  _248
REMARK  110  A    between atoms: _247  and  _250
REMARK  111  A    between atoms: _250  and  _251
REMARK  112  A    between atoms: _251  and  _252
REMARK  113  A    between atoms: _254  and  _256
REMARK  114  A    between atoms: _256  and  _257
REMARK  115  A    between atoms: _256  and  _259
REMARK  116  A    between atoms: _259  and  _260
REMARK  117  A    between atoms: _260  and  _261
REMARK  118  A    between atoms: _261  and  _262
REMARK  119  A    between atoms: _262  and  _263
REMARK  120  A    between atoms: _267  and  _269
REMARK  121  A    between atoms: _269  and  _270
REMARK  122  A    between atoms: _269  and  _272
REMARK  123  A    between atoms: _272  and  _273
REMARK  124  A    between atoms: _276  and  _278
REMARK  125  A    between atoms: _278  and  _279
REMARK  126  A    between atoms: _278  and  _281
REMARK  127  A    between atoms: _281  and  _282
REMARK  128  A    between atoms: _287  and  _288
REMARK  129  A    between atoms: _290  and  _292
REMARK  130  A    between atoms: _292  and  _293
REMARK  131  A    between atoms: _292  and  _295
REMARK  132  A    between atoms: _295  and  _296
REMARK  133  A    between atoms: _296  and  _297
REMARK  134  A    between atoms: _300  and  _302
REMARK  135  A    between atoms: _302  and  _303
REMARK  136  A    between atoms: _302  and  _305
REMARK  137  A    between atoms: _305  and  _306
REMARK  138  A    between atoms: _312  and  _314
REMARK  139  A    between atoms: _314  and  _315
REMARK  140  A    between atoms: _314  and  _317
REMARK  141  A    between atoms: _317  and  _318
REMARK  142  A    between atoms: _324  and  _326
REMARK  143  A    between atoms: _326  and  _327
REMARK  144  A    between atoms: _326  and  _329
REMARK  145  A    between atoms: _329  and  _330
REMARK  146  A    between atoms: _336  and  _338
REMARK  147  A    between atoms: _338  and  _339
REMARK  148  A    between atoms: _338  and  _341
REMARK  149  A    between atoms: _341  and  _342
REMARK  150  A    between atoms: _347  and  _348
REMARK  151  A    between atoms: _350  and  _352
REMARK  152  A    between atoms: _352  and  _353
REMARK  153  A    between atoms: _352  and  _355
REMARK  154  A    between atoms: _355  and  _356
REMARK  155  A    between atoms: _359  and  _361
REMARK  156  A    between atoms: _361  and  _362
REMARK  157  A    between atoms: _361  and  _364
REMARK  158  A    between atoms: _367  and  _369
REMARK  159  A    between atoms: _369  and  _370
REMARK  160  A    between atoms: _372  and  _374
REMARK  161  A    between atoms: _374  and  _375
REMARK  162  A    between atoms: _374  and  _377
REMARK  163  A    between atoms: _377  and  _378
REMARK  164  A    between atoms: _378  and  _379
REMARK  165  A    between atoms: _382  and  _384
REMARK  166  A    between atoms: _384  and  _385
REMARK  167  A    between atoms: _384  and  _387
REMARK  168  A    between atoms: _390  and  _392
REMARK  169  A    between atoms: _392  and  _393
REMARK  170  A    between atoms: _392  and  _395
REMARK  171  A    between atoms: _395  and  _396
REMARK  172  A    between atoms: _401  and  _402
REMARK  173  A    between atoms: _404  and  _406
REMARK  174  A    between atoms: _406  and  _407
REMARK  175  A    between atoms: _406  and  _409
REMARK  176  A    between atoms: _409  and  _410
REMARK  177  A    between atoms: _413  and  _415
REMARK  178  A    between atoms: _415  and  _416
REMARK  179  A    between atoms: _418  and  _420
REMARK  180  A    between atoms: _420  and  _421
REMARK  181  A    between atoms: _423  and  _425
REMARK  182  A    between atoms: _425  and  _426
REMARK  183  A    between atoms: _425  and  _428
REMARK  184  A    between atoms: _428  and  _429
REMARK  185  A    between atoms: _429  and  _430
REMARK  186  A    between atoms: _433  and  _435
REMARK  187  A    between atoms: _435  and  _436
REMARK  188  A    between atoms: _435  and  _438
REMARK  189  A    between atoms: _438  and  _439
REMARK  190  A    between atoms: _442  and  _444
REMARK  191  A    between atoms: _444  and  _445
REMARK  192  A    between atoms: _444  and  _447
REMARK  193  A    between atoms: _450  and  _452
REMARK  194  A    between atoms: _452  and  _453
REMARK  195  A    between atoms: _452  and  _455
REMARK  196  A    between atoms: _455  and  _456
REMARK  197  A    between atoms: _456  and  _457
REMARK  198  A    between atoms: _460  and  _462
REMARK  199  A    between atoms: _462  and  _463
REMARK  200  A    between atoms: _462  and  _465
REMARK  201  A    between atoms: _465  and  _466
REMARK  202  A    between atoms: _471  and  _473
REMARK  203  A    between atoms: _473  and  _474
REMARK  204  A    between atoms: _473  and  _476
REMARK  205  A    between atoms: _476  and  _477
REMARK  206  A    between atoms: _480  and  _482
REMARK  207  A    between atoms: _482  and  _483
REMARK  208  A    between atoms: _482  and  _485
REMARK  209  A    between atoms: _485  and  _486
REMARK  210  A    between atoms: _489  and  _491
REMARK  211  A    between atoms: _491  and  _492
REMARK  212  A    between atoms: _491  and  _494
REMARK  213  A    between atoms: _494  and  _495
REMARK  214  A    between atoms: _498  and  _500
REMARK  215  A    between atoms: _500  and  _501
REMARK  216  A    between atoms: _500  and  _503
REMARK  217  A    between atoms: _503  and  _504
REMARK  218  A    between atoms: _504  and  _505
REMARK  219  A    between atoms: _508  and  _510
REMARK  220  A    between atoms: _510  and  _511
REMARK  221  A    between atoms: _510  and  _513
REMARK  222  A    between atoms: _513  and  _514
REMARK  223  A    between atoms: _514  and  _515
REMARK  224  A    between atoms: _515  and  _516
REMARK  225  A    between atoms: _525  and  _527
REMARK  226  A    between atoms: _527  and  _528
REMARK  227  A    between atoms: _527  and  _530
REMARK  228  A    between atoms: _530  and  _531
REMARK  229  A    between atoms: _534  and  _536
REMARK  230  A    between atoms: _536  and  _537
REMARK  231  A    between atoms: _536  and  _539
REMARK  232  A    between atoms: _539  and  _540
REMARK  233  A    between atoms: _543  and  _545
REMARK  234  A    between atoms: _545  and  _546
REMARK  235  A    between atoms: _545  and  _548
REMARK  236  A    between atoms: _548  and  _549
REMARK  237  A    between atoms: _552  and  _554
REMARK  238  A    between atoms: _554  and  _555
REMARK  239  A    between atoms: _554  and  _557
REMARK  240  A    between atoms: _557  and  _558
REMARK  241  A    between atoms: _564  and  _566
REMARK  242  A    between atoms: _566  and  _567
REMARK  243  A    between atoms: _569  and  _571
REMARK  244  A    between atoms: _571  and  _572
REMARK  245  A    between atoms: _571  and  _574
REMARK  246  A    between atoms: _574  and  _575
REMARK  247  A    between atoms: _578  and  _580
REMARK  248  A    between atoms: _580  and  _581
REMARK  249  A    between atoms: _580  and  _583
REMARK  250  A    between atoms: _583  and  _584
REMARK  251  A    between atoms: _586  and  _588
REMARK  252  A    between atoms: _588  and  _589
REMARK  253  A    between atoms: _588  and  _591
REMARK  254  A    between atoms: _591  and  _592
REMARK  255  A    between atoms: _595  and  _597
REMARK  256  A    between atoms: _597  and  _598
REMARK  257  A    between atoms: _597  and  _600
REMARK  258  A    between atoms: _600  and  _601
REMARK  259  A    between atoms: _606  and  _608
REMARK  260  A    between atoms: _608  and  _609
REMARK  261  A    between atoms: _608  and  _611
REMARK  262  A    between atoms: _611  and  _612
REMARK  263  A    between atoms: _618  and  _620
REMARK  264  A    between atoms: _620  and  _621
REMARK  265  A    between atoms: _620  and  _623
REMARK  266  A    between atoms: _623  and  _624
REMARK  267  A    between atoms: _624  and  _625
REMARK  268  A    between atoms: _625  and  _626
REMARK  269  A    between atoms: _626  and  _627
REMARK                            x       y       z     vdW  Elec       q    Type
REMARK                         _______ _______ _______ _____ _____    ______ ____
ROOT
ATOM      1  CG  LYS A   1      23.224  23.821  53.192  0.00  0.00    -0.000 C 
ENDROOT
BRANCH   1   2
ATOM      2  CB  LYS A   1      24.052  25.012  53.684  0.00  0.00    +0.025 C 
BRANCH   2   3
ATOM      3  CA  LYS A   1      23.216  26.279  53.832  0.00  0.00    +0.133 C 
BRANCH   3   4
ATOM      4  N   LYS A   1      22.574  26.644  52.573  0.00  0.00    -0.239 NA
ATOM      5  H   LYS A   1      22.880  26.195  51.686  0.00  0.00    +0.142 HD
ENDBRANCH   3   4
BRANCH   3   6
ATOM      6  C   LYS A   1      24.048  27.420  54.397  0.00  0.00    +0.224 C 
ATOM      7  O   LYS A   1      24.078  27.596  55.609  0.00  0.00    -0.287 OA
ENDBRANCH   3   6
ENDBRANCH   2   3
ENDBRANCH   1   2
BRANCH   1   8
ATOM      8  CD  LYS A   1      23.661  22.484  53.774  0.00  0.00    -0.024 C 
BRANCH   8   9
ATOM      9  CE  LYS A   1      22.801  22.045  54.955  0.00  0.00    -0.086 C 
BRANCH   9  10
ATOM     10  NZ  LYS A   1      22.821  20.553  55.076  0.00  0.00    +0.380 N 
ATOM     11  HZ1 LYS A   1      22.232  20.264  55.883  0.00  0.00    -0.089 HD
ATOM     12  HZ2 LYS A   1      23.799  20.232  55.226  0.00  0.00    -0.089 HD
ATOM     13  HZ3 LYS A   1      22.446  20.131  54.203  0.00  0.00    -0.089 HD
ENDBRANCH   9  10
ENDBRANCH   8   9
ENDBRANCH   1   8
TORSDOF 7
REMARK  Name = ../refined-set-2016/3v51/3v51_pocket.pdb
REMARK  269 active torsions:
REMARK  status: ('A' for Active; 'I' for Inactive)
REMARK    1  A    between atoms: _1  and  _3
REMARK    2  A    between atoms: _3  and  _4
REMARK    3  A    between atoms: _3  and  _6
REMARK    4  A    between atoms: _6  and  _7
REMARK    5  A    between atoms: _7  and  _8
REMARK    6  A    between atoms: _8  and  _9
REMARK    7  A    between atoms: _18  and  _20
REMARK    8  A    between atoms: _20  and  _21
REMARK    9  A    between atoms: _20  and  _23
REMARK   10  A    between atoms: _26  and  _28
REMARK   11  A    between atoms: _28  and  _29
REMARK   12  A    between atoms: _28  and  _31
REMARK   13  A    between atoms: _31  and  _32
REMARK   14  A    between atoms: _35  and  _37
REMARK   15  A    between atoms: _37  and  _38
REMARK   16  A    between atoms: _40  and  _42
REMARK   17  A    between atoms: _42  and  _43
REMARK   18  A    between atoms: _42  and  _45
REMARK   19  A    between atoms: _45  and  _46
REMARK   20  A    between atoms: _46  and  _47
REMARK   21  A    between atoms: _47  and  _48
REMARK   22  A    between atoms: _48  and  _49
REMARK   23  A    between atoms: _53  and  _55
REMARK   24  A    between atoms: _55  and  _56
REMARK   25  A    between atoms: _58  and  _60
REMARK   26  A    between atoms: _60  and  _61
REMARK   27  A    between atoms: _60  and  _63
REMARK   28  A    between atoms: _63  and  _64
REMARK   29  A    between atoms: _68  and  _69
REMARK   30  A    between atoms: _71  and  _73
REMARK   31  A    between atoms: _73  and  _74
REMARK   32  A    between atoms: _73  and  _76
REMARK   33  A    between atoms: _76  and  _77
REMARK   34  A    between atoms: _77  and  _78
REMARK   35  A    between atoms: _81  and  _83
REMARK   36  A    between atoms: _83  and  _84
REMARK   37  A    between atoms: _83  and  _86
REMARK   38  A    between atoms: _89  and  _91
REMARK   39  A    between atoms: _91  and  _92
REMARK   40  A    between atoms: _91  and  _94
REMARK   41  A    between atoms: _94  and  _95
REMARK   42  A    between atoms: _98  and  _100
REMARK   43  A    between atoms: _100  and  _101
REMARK   44  A    between atoms: _100  and  _103
REMARK   45  A    between atoms: _103  and  _104
REMARK   46  A    between atoms: _107  and  _109
REMARK   47  A    between atoms: _109  and  _110
REMARK   48  A    between atoms: _109  and  _112
REMARK   49  A    between atoms: _114  and  _116
REMARK   50  A    between atoms: _116  and  _117
REMARK   51  A    between atoms: _120  and  _122
REMARK   52  A    between atoms: _122  and  _123
REMARK   53  A    between atoms: _122  and  _125
REMARK   54  A    between atoms: _128  and  _130
REMARK   55  A    between atoms: _130  and  _131
REMARK   56  A    between atoms: _130  and  _133
REMARK   57  A    between atoms: _133  and  _134
REMARK   58  A    between atoms: _134  and  _135
REMARK   59  A    between atoms: _135  and  _136
REMARK   60  A    between atoms: _136  and  _137
REMARK   61  A    between atoms: _141  and  _143
REMARK   62  A    between atoms: _143  and  _144
REMARK   63  A    between atoms: _143  and  _146
REMARK   64  A    between atoms: _149  and  _151
REMARK   65  A    between atoms: _151  and  _152
REMARK   66  A    between atoms: _151  and  _154
REMARK   67  A    between atoms: _154  and  _155
REMARK   68  A    between atoms: _158  and  _160
REMARK   69  A    between atoms: _160  and  _161
REMARK   70  A    between atoms: _160  and  _163
REMARK   71  A    between atoms: _163  and  _164
REMARK   72  A    between atoms: _167  and  _169
REMARK   73  A    between atoms: _169  and  _170
REMARK   74  A    between atoms: _169  and  _172
REMARK   75  A    between atoms: _172  and  _173
REMARK   76  A    between atoms: _175  and  _177
REMARK   77  A    between atoms: _177  and  _178
REMARK   78  A    between atoms: _177  and  _180
REMARK   79  A    between atoms: _180  and  _181
REMARK   80  A    between atoms: _184  and  _186
REMARK   81  A    between atoms: _186  and  _187
REMARK   82  A    between atoms: _186  and  _189
REMARK   83  A    between atoms: _189  and  _190
REMARK   84  A    between atoms: _193  and  _195
REMARK   85  A    between atoms: _195  and  _196
REMARK   86  A    between atoms: _195  and  _198
REMARK   87  A    between atoms: _198  and  _199
REMARK   88  A    between atoms: _199  and  _200
REMARK   89  A    between atoms: _203  and  _205
REMARK   90  A    between atoms: _205  and  _206
REMARK   91  A    between atoms: _205  and  _208
REMARK   92  A    between atoms: _211  and  _213
REMARK   93  A    between atoms: _213  and  _214
REMARK   94  A    between atoms: _213  and  _216
REMARK   95  A    between atoms: _216  and  _217
REMARK   96  A    between atoms: _217  and  _218
REMARK   97  A    between atoms: _223  and  _225
REMARK   98  A    between atoms: _225  and  _226
REMARK   99  A    between atoms: _225  and  _228
REMARK  100  A    between atoms: _228  and  _229
REMARK  101  A    between atoms: _232  and  _234
REMARK  102  A    between atoms: _234  and  _235
REMARK  103  A    between atoms: _234  and  _237
REMARK  104  A    between atoms: _237  and  _238
REMARK  105  A    between atoms: _238  and  _239
REMARK  106  A    between atoms: _239  and  _240
REMARK  107  A    between atoms: _240  and  _241
REMARK  108  A    between atoms: _245  and  _247
REMARK  109  A    between atoms: _247  and  _248
REMARK  110  A    between atoms: _247  and  _250
REMARK  111  A    between atoms: _250  and  _251
REMARK  112  A    between atoms: _251  and  _252
REMARK  113  A    between atoms: _254  and  _256
REMARK  114  A    between atoms: _256  and  _257
REMARK  115  A    between atoms: _256  and  _259
REMARK  116  A    between atoms: _259  and  _260
REMARK  117  A    between atoms: _260  and  _261
REMARK  118  A    between atoms: _261  and  _262
REMARK  119  A    between atoms: _262  and  _263
REMARK  120  A    between atoms: _267  and  _269
REMARK  121  A    between atoms: _269  and  _270
REMARK  122  A    between atoms: _269  and  _272
REMARK  123  A    between atoms: _272  and  _273
REMARK  124  A    between atoms: _276  and  _278
REMARK  125  A    between atoms: _278  and  _279
REMARK  126  A    between atoms: _278  and  _281
REMARK  127  A    between atoms: _281  and  _282
REMARK  128  A    between atoms: _287  and  _288
REMARK  129  A    between atoms: _290  and  _292
REMARK  130  A    between atoms: _292  and  _293
REMARK  131  A    between atoms: _292  and  _295
REMARK  132  A    between atoms: _295  and  _296
REMARK  133  A    between atoms: _296  and  _297
REMARK  134  A    between atoms: _300  and  _302
REMARK  135  A    between atoms: _302  and  _303
REMARK  136  A    between atoms: _302  and  _305
REMARK  137  A    between atoms: _305  and  _306
REMARK  138  A    between atoms: _312  and  _314
REMARK  139  A    between atoms: _314  and  _315
REMARK  140  A    between atoms: _314  and  _317
REMARK  141  A    between atoms: _317  and  _318
REMARK  142  A    between atoms: _324  and  _326
REMARK  143  A    between atoms: _326  and  _327
REMARK  144  A    between atoms: _326  and  _329
REMARK  145  A    between atoms: _329  and  _330
REMARK  146  A    between atoms: _336  and  _338
REMARK  147  A    between atoms: _338  and  _339
REMARK  148  A    between atoms: _338  and  _341
REMARK  149  A    between atoms: _341  and  _342
REMARK  150  A    between atoms: _347  and  _348
REMARK  151  A    between atoms: _350  and  _352
REMARK  152  A    between atoms: _352  and  _353
REMARK  153  A    between atoms: _352  and  _355
REMARK  154  A    between atoms: _355  and  _356
REMARK  155  A    between atoms: _359  and  _361
REMARK  156  A    between atoms: _361  and  _362
REMARK  157  A    between atoms: _361  and  _364
REMARK  158  A    between atoms: _367  and  _369
REMARK  159  A    between atoms: _369  and  _370
REMARK  160  A    between atoms: _372  and  _374
REMARK  161  A    between atoms: _374  and  _375
REMARK  162  A    between atoms: _374  and  _377
REMARK  163  A    between atoms: _377  and  _378
REMARK  164  A    between atoms: _378  and  _379
REMARK  165  A    between atoms: _382  and  _384
REMARK  166  A    between atoms: _384  and  _385
REMARK  167  A    between atoms: _384  and  _387
REMARK  168  A    between atoms: _390  and  _392
REMARK  169  A    between atoms: _392  and  _393
REMARK  170  A    between atoms: _392  and  _395
REMARK  171  A    between atoms: _395  and  _396
REMARK  172  A    between atoms: _401  and  _402
REMARK  173  A    between atoms: _404  and  _406
REMARK  174  A    between atoms: _406  and  _407
REMARK  175  A    between atoms: _406  and  _409
REMARK  176  A    between atoms: _409  and  _410
REMARK  177  A    between atoms: _413  and  _415
REMARK  178  A    between atoms: _415  and  _416
REMARK  179  A    between atoms: _418  and  _420
REMARK  180  A    between atoms: _420  and  _421
REMARK  181  A    between atoms: _423  and  _425
REMARK  182  A    between atoms: _425  and  _426
REMARK  183  A    between atoms: _425  and  _428
REMARK  184  A    between atoms: _428  and  _429
REMARK  185  A    between atoms: _429  and  _430
REMARK  186  A    between atoms: _433  and  _435
REMARK  187  A    between atoms: _435  and  _436
REMARK  188  A    between atoms: _435  and  _438
REMARK  189  A    between atoms: _438  and  _439
REMARK  190  A    between atoms: _442  and  _444
REMARK  191  A    between atoms: _444  and  _445
REMARK  192  A    between atoms: _444  and  _447
REMARK  193  A    between atoms: _450  and  _452
REMARK  194  A    between atoms: _452  and  _453
REMARK  195  A    between atoms: _452  and  _455
REMARK  196  A    between atoms: _455  and  _456
REMARK  197  A    between atoms: _456  and  _457
REMARK  198  A    between atoms: _460  and  _462
REMARK  199  A    between atoms: _462  and  _463
REMARK  200  A    between atoms: _462  and  _465
REMARK  201  A    between atoms: _465  and  _466
REMARK  202  A    between atoms: _471  and  _473
REMARK  203  A    between atoms: _473  and  _474
REMARK  204  A    between atoms: _473  and  _476
REMARK  205  A    between atoms: _476  and  _477
REMARK  206  A    between atoms: _480  and  _482
REMARK  207  A    between atoms: _482  and  _483
REMARK  208  A    between atoms: _482  and  _485
REMARK  209  A    between atoms: _485  and  _486
REMARK  210  A    between atoms: _489  and  _491
REMARK  211  A    between atoms: _491  and  _492
REMARK  212  A    between atoms: _491  and  _494
REMARK  213  A    between atoms: _494  and  _495
REMARK  214  A    between atoms: _498  and  _500
REMARK  215  A    between atoms: _500  and  _501
REMARK  216  A    between atoms: _500  and  _503
REMARK  217  A    between atoms: _503  and  _504
REMARK  218  A    between atoms: _504  and  _505
REMARK  219  A    between atoms: _508  and  _510
REMARK  220  A    between atoms: _510  and  _511
REMARK  221  A    between atoms: _510  and  _513
REMARK  222  A    between atoms: _513  and  _514
REMARK  223  A    between atoms: _514  and  _515
REMARK  224  A    between atoms: _515  and  _516
REMARK  225  A    between atoms: _525  and  _527
REMARK  226  A    between atoms: _527  and  _528
REMARK  227  A    between atoms: _527  and  _530
REMARK  228  A    between atoms: _530  and  _531
REMARK  229  A    between atoms: _534  and  _536
REMARK  230  A    between atoms: _536  and  _537
REMARK  231  A    between atoms: _536  and  _539
REMARK  232  A    between atoms: _539  and  _540
REMARK  233  A    between atoms: _543  and  _545
REMARK  234  A    between atoms: _545  and  _546
REMARK  235  A    between atoms: _545  and  _548
REMARK  236  A    between atoms: _548  and  _549
REMARK  237  A    between atoms: _552  and  _554
REMARK  238  A    between atoms: _554  and  _555
REMARK  239  A    between atoms: _554  and  _557
REMARK  240  A    between atoms: _557  and  _558
REMARK  241  A    between atoms: _564  and  _566
REMARK  242  A    between atoms: _566  and  _567
REMARK  243  A    between atoms: _569  and  _571
REMARK  244  A    between atoms: _571  and  _572
REMARK  245  A    between atoms: _571  and  _574
REMARK  246  A    between atoms: _574  and  _575
REMARK  247  A    between atoms: _578  and  _580
REMARK  248  A    between atoms: _580  and  _581
REMARK  249  A    between atoms: _580  and  _583
REMARK  250  A    between atoms: _583  and  _584
REMARK  251  A    between atoms: _586  and  _588
REMARK  252  A    between atoms: _588  and  _589
REMARK  253  A    between atoms: _588  and  _591
REMARK  254  A    between atoms: _591  and  _592
REMARK  255  A    between atoms: _595  and  _597
REMARK  256  A    between atoms: _597  and  _598
REMARK  257  A    between atoms: _597  and  _600
REMARK  258  A    between atoms: _600  and  _601
REMARK  259  A    between atoms: _606  and  _608
REMARK  260  A    between atoms: _608  and  _609
REMARK  261  A    between atoms: _608  and  _611
REMARK  262  A    between atoms: _611  and  _612
REMARK  263  A    between atoms: _618  and  _620
REMARK  264  A    between atoms: _620  and  _621
REMARK  265  A    between atoms: _620  and  _623
REMARK  266  A    between atoms: _623  and  _624
REMARK  267  A    between atoms: _624  and  _625
REMARK  268  A    between atoms: _625  and  _626
REMARK  269  A    between atoms: _626  and  _627
REMARK                            x       y       z     vdW  Elec       q    Type
REMARK                         _______ _______ _______ _____ _____    ______ ____
ROOT
ATOM      1  O   HOH     1       8.169  13.743  62.208  0.00  0.00    +0.000 OA
ENDROOT
TORSDOF 0
REMARK  Name = ../refined-set-2016/3v51/3v51_pocket.pdb
REMARK  269 active torsions:
REMARK  status: ('A' for Active; 'I' for Inactive)
REMARK    1  A    between atoms: _1  and  _3
REMARK    2  A    between atoms: _3  and  _4
REMARK    3  A    between atoms: _3  and  _6
REMARK    4  A    between atoms: _6  and  _7
REMARK    5  A    between atoms: _7  and  _8
REMARK    6  A    between atoms: _8  and  _9
REMARK    7  A    between atoms: _18  and  _20
REMARK    8  A    between atoms: _20  and  _21
REMARK    9  A    between atoms: _20  and  _23
REMARK   10  A    between atoms: _26  and  _28
REMARK   11  A    between atoms: _28  and  _29
REMARK   12  A    between atoms: _28  and  _31
REMARK   13  A    between atoms: _31  and  _32
REMARK   14  A    between atoms: _35  and  _37
REMARK   15  A    between atoms: _37  and  _38
REMARK   16  A    between atoms: _40  and  _42
REMARK   17  A    between atoms: _42  and  _43
REMARK   18  A    between atoms: _42  and  _45
REMARK   19  A    between atoms: _45  and  _46
REMARK   20  A    between atoms: _46  and  _47
REMARK   21  A    between atoms: _47  and  _48
REMARK   22  A    between atoms: _48  and  _49
REMARK   23  A    between atoms: _53  and  _55
REMARK   24  A    between atoms: _55  and  _56
REMARK   25  A    between atoms: _58  and  _60
REMARK   26  A    between atoms: _60  and  _61
REMARK   27  A    between atoms: _60  and  _63
REMARK   28  A    between atoms: _63  and  _64
REMARK   29  A    between atoms: _68  and  _69
REMARK   30  A    between atoms: _71  and  _73
REMARK   31  A    between atoms: _73  and  _74
REMARK   32  A    between atoms: _73  and  _76
REMARK   33  A    between atoms: _76  and  _77
REMARK   34  A    between atoms: _77  and  _78
REMARK   35  A    between atoms: _81  and  _83
REMARK   36  A    between atoms: _83  and  _84
REMARK   37  A    between atoms: _83  and  _86
REMARK   38  A    between atoms: _89  and  _91
REMARK   39  A    between atoms: _91  and  _92
REMARK   40  A    between atoms: _91  and  _94
REMARK   41  A    between atoms: _94  and  _95
REMARK   42  A    between atoms: _98  and  _100
REMARK   43  A    between atoms: _100  and  _101
REMARK   44  A    between atoms: _100  and  _103
REMARK   45  A    between atoms: _103  and  _104
REMARK   46  A    between atoms: _107  and  _109
REMARK   47  A    between atoms: _109  and  _110
REMARK   48  A    between atoms: _109  and  _112
REMARK   49  A    between atoms: _114  and  _116
REMARK   50  A    between atoms: _116  and  _117
REMARK   51  A    between atoms: _120  and  _122
REMARK   52  A    between atoms: _122  and  _123
REMARK   53  A    between atoms: _122  and  _125
REMARK   54  A    between atoms: _128  and  _130
REMARK   55  A    between atoms: _130  and  _131
REMARK   56  A    between atoms: _130  and  _133
REMARK   57  A    between atoms: _133  and  _134
REMARK   58  A    between atoms: _134  and  _135
REMARK   59  A    between atoms: _135  and  _136
REMARK   60  A    between atoms: _136  and  _137
REMARK   61  A    between atoms: _141  and  _143
REMARK   62  A    between atoms: _143  and  _144
REMARK   63  A    between atoms: _143  and  _146
REMARK   64  A    between atoms: _149  and  _151
REMARK   65  A    between atoms: _151  and  _152
REMARK   66  A    between atoms: _151  and  _154
REMARK   67  A    between atoms: _154  and  _155
REMARK   68  A    between atoms: _158  and  _160
REMARK   69  A    between atoms: _160  and  _161
REMARK   70  A    between atoms: _160  and  _163
REMARK   71  A    between atoms: _163  and  _164
REMARK   72  A    between atoms: _167  and  _169
REMARK   73  A    between atoms: _169  and  _170
REMARK   74  A    between atoms: _169  and  _172
REMARK   75  A    between atoms: _172  and  _173
REMARK   76  A    between atoms: _175  and  _177
REMARK   77  A    between atoms: _177  and  _178
REMARK   78  A    between atoms: _177  and  _180
REMARK   79  A    between atoms: _180  and  _181
REMARK   80  A    between atoms: _184  and  _186
REMARK   81  A    between atoms: _186  and  _187
REMARK   82  A    between atoms: _186  and  _189
REMARK   83  A    between atoms: _189  and  _190
REMARK   84  A    between atoms: _193  and  _195
REMARK   85  A    between atoms: _195  and  _196
REMARK   86  A    between atoms: _195  and  _198
REMARK   87  A    between atoms: _198  and  _199
REMARK   88  A    between atoms: _199  and  _200
REMARK   89  A    between atoms: _203  and  _205
REMARK   90  A    between atoms: _205  and  _206
REMARK   91  A    between atoms: _205  and  _208
REMARK   92  A    between atoms: _211  and  _213
REMARK   93  A    between atoms: _213  and  _214
REMARK   94  A    between atoms: _213  and  _216
REMARK   95  A    between atoms: _216  and  _217
REMARK   96  A    between atoms: _217  and  _218
REMARK   97  A    between atoms: _223  and  _225
REMARK   98  A    between atoms: _225  and  _226
REMARK   99  A    between atoms: _225  and  _228
REMARK  100  A    between atoms: _228  and  _229
REMARK  101  A    between atoms: _232  and  _234
REMARK  102  A    between atoms: _234  and  _235
REMARK  103  A    between atoms: _234  and  _237
REMARK  104  A    between atoms: _237  and  _238
REMARK  105  A    between atoms: _238  and  _239
REMARK  106  A    between atoms: _239  and  _240
REMARK  107  A    between atoms: _240  and  _241
REMARK  108  A    between atoms: _245  and  _247
REMARK  109  A    between atoms: _247  and  _248
REMARK  110  A    between atoms: _247  and  _250
REMARK  111  A    between atoms: _250  and  _251
REMARK  112  A    between atoms: _251  and  _252
REMARK  113  A    between atoms: _254  and  _256
REMARK  114  A    between atoms: _256  and  _257
REMARK  115  A    between atoms: _256  and  _259
REMARK  116  A    between atoms: _259  and  _260
REMARK  117  A    between atoms: _260  and  _261
REMARK  118  A    between atoms: _261  and  _262
REMARK  119  A    between atoms: _262  and  _263
REMARK  120  A    between atoms: _267  and  _269
REMARK  121  A    between atoms: _269  and  _270
REMARK  122  A    between atoms: _269  and  _272
REMARK  123  A    between atoms: _272  and  _273
REMARK  124  A    between atoms: _276  and  _278
REMARK  125  A    between atoms: _278  and  _279
REMARK  126  A    between atoms: _278  and  _281
REMARK  127  A    between atoms: _281  and  _282
REMARK  128  A    between atoms: _287  and  _288
REMARK  129  A    between atoms: _290  and  _292
REMARK  130  A    between atoms: _292  and  _293
REMARK  131  A    between atoms: _292  and  _295
REMARK  132  A    between atoms: _295  and  _296
REMARK  133  A    between atoms: _296  and  _297
REMARK  134  A    between atoms: _300  and  _302
REMARK  135  A    between atoms: _302  and  _303
REMARK  136  A    between atoms: _302  and  _305
REMARK  137  A    between atoms: _305  and  _306
REMARK  138  A    between atoms: _312  and  _314
REMARK  139  A    between atoms: _314  and  _315
REMARK  140  A    between atoms: _314  and  _317
REMARK  141  A    between atoms: _317  and  _318
REMARK  142  A    between atoms: _324  and  _326
REMARK  143  A    between atoms: _326  and  _327
REMARK  144  A    between atoms: _326  and  _329
REMARK  145  A    between atoms: _329  and  _330
REMARK  146  A    between atoms: _336  and  _338
REMARK  147  A    between atoms: _338  and  _339
REMARK  148  A    between atoms: _338  and  _341
REMARK  149  A    between atoms: _341  and  _342
REMARK  150  A    between atoms: _347  and  _348
REMARK  151  A    between atoms: _350  and  _352
REMARK  152  A    between atoms: _352  and  _353
REMARK  153  A    between atoms: _352  and  _355
REMARK  154  A    between atoms: _355  and  _356
REMARK  155  A    between atoms: _359  and  _361
REMARK  156  A    between atoms: _361  and  _362
REMARK  157  A    between atoms: _361  and  _364
REMARK  158  A    between atoms: _367  and  _369
REMARK  159  A    between atoms: _369  and  _370
REMARK  160  A    between atoms: _372  and  _374
REMARK  161  A    between atoms: _374  and  _375
REMARK  162  A    between atoms: _374  and  _377
REMARK  163  A    between atoms: _377  and  _378
REMARK  164  A    between atoms: _378  and  _379
REMARK  165  A    between atoms: _382  and  _384
REMARK  166  A    between atoms: _384  and  _385
REMARK  167  A    between atoms: _384  and  _387
REMARK  168  A    between atoms: _390  and  _392
REMARK  169  A    between atoms: _392  and  _393
REMARK  170  A    between atoms: _392  and  _395
REMARK  171  A    between atoms: _395  and  _396
REMARK  172  A    between atoms: _401  and  _402
REMARK  173  A    between atoms: _404  and  _406
REMARK  174  A    between atoms: _406  and  _407
REMARK  175  A    between atoms: _406  and  _409
REMARK  176  A    between atoms: _409  and  _410
REMARK  177  A    between atoms: _413  and  _415
REMARK  178  A    between atoms: _415  and  _416
REMARK  179  A    between atoms: _418  and  _420
REMARK  180  A    between atoms: _420  and  _421
REMARK  181  A    between atoms: _423  and  _425
REMARK  182  A    between atoms: _425  and  _426
REMARK  183  A    between atoms: _425  and  _428
REMARK  184  A    between atoms: _428  and  _429
REMARK  185  A    between atoms: _429  and  _430
REMARK  186  A    between atoms: _433  and  _435
REMARK  187  A    between atoms: _435  and  _436
REMARK  188  A    between atoms: _435  and  _438
REMARK  189  A    between atoms: _438  and  _439
REMARK  190  A    between atoms: _442  and  _444
REMARK  191  A    between atoms: _444  and  _445
REMARK  192  A    between atoms: _444  and  _447
REMARK  193  A    between atoms: _450  and  _452
REMARK  194  A    between atoms: _452  and  _453
REMARK  195  A    between atoms: _452  and  _455
REMARK  196  A    between atoms: _455  and  _456
REMARK  197  A    between atoms: _456  and  _457
REMARK  198  A    between atoms: _460  and  _462
REMARK  199  A    between atoms: _462  and  _463
REMARK  200  A    between atoms: _462  and  _465
REMARK  201  A    between atoms: _465  and  _466
REMARK  202  A    between atoms: _471  and  _473
REMARK  203  A    between atoms: _473  and  _474
REMARK  204  A    between atoms: _473  and  _476
REMARK  205  A    between atoms: _476  and  _477
REMARK  206  A    between atoms: _480  and  _482
REMARK  207  A    between atoms: _482  and  _483
REMARK  208  A    between atoms: _482  and  _485
REMARK  209  A    between atoms: _485  and  _486
REMARK  210  A    between atoms: _489  and  _491
REMARK  211  A    between atoms: _491  and  _492
REMARK  212  A    between atoms: _491  and  _494
REMARK  213  A    between atoms: _494  and  _495
REMARK  214  A    between atoms: _498  and  _500
REMARK  215  A    between atoms: _500  and  _501
REMARK  216  A    between atoms: _500  and  _503
REMARK  217  A    between atoms: _503  and  _504
REMARK  218  A    between atoms: _504  and  _505
REMARK  219  A    between atoms: _508  and  _510
REMARK  220  A    between atoms: _510  and  _511
REMARK  221  A    between atoms: _510  and  _513
REMARK  222  A    between atoms: _513  and  _514
REMARK  223  A    between atoms: _514  and  _515
REMARK  224  A    between atoms: _515  and  _516
REMARK  225  A    between atoms: _525  and  _527
REMARK  226  A    between atoms: _527  and  _528
REMARK  227  A    between atoms: _527  and  _530
REMARK  228  A    between atoms: _530  and  _531
REMARK  229  A    between atoms: _534  and  _536
REMARK  230  A    between atoms: _536  and  _537
REMARK  231  A    between atoms: _536  and  _539
REMARK  232  A    between atoms: _539  and  _540
REMARK  233  A    between atoms: _543  and  _545
REMARK  234  A    between atoms: _545  and  _546
REMARK  235  A    between atoms: _545  and  _548
REMARK  236  A    between atoms: _548  and  _549
REMARK  237  A    between atoms: _552  and  _554
REMARK  238  A    between atoms: _554  and  _555
REMARK  239  A    between atoms: _554  and  _557
REMARK  240  A    between atoms: _557  and  _558
REMARK  241  A    between atoms: _564  and  _566
REMARK  242  A    between atoms: _566  and  _567
REMARK  243  A    between atoms: _569  and  _571
REMARK  244  A    between atoms: _571  and  _572
REMARK  245  A    between atoms: _571  and  _574
REMARK  246  A    between atoms: _574  and  _575
REMARK  247  A    between atoms: _578  and  _580
REMARK  248  A    between atoms: _580  and  _581
REMARK  249  A    between atoms: _580  and  _583
REMARK  250  A    between atoms: _583  and  _584
REMARK  251  A    between atoms: _586  and  _588
REMARK  252  A    between atoms: _588  and  _589
REMARK  253  A    between atoms: _588  and  _591
REMARK  254  A    between atoms: _591  and  _592
REMARK  255  A    between atoms: _595  and  _597
REMARK  256  A    between atoms: _597  and  _598
REMARK  257  A    between atoms: _597  and  _600
REMARK  258  A    between atoms: _600  and  _601
REMARK  259  A    between atoms: _606  and  _608
REMARK  260  A    between atoms: _608  and  _609
REMARK  261  A    between atoms: _608  and  _611
REMARK  262  A    between atoms: _611  and  _612
REMARK  263  A    between atoms: _618  and  _620
REMARK  264  A    between atoms: _620  and  _621
REMARK  265  A    between atoms: _620  and  _623
REMARK  266  A    between atoms: _623  and  _624
REMARK  267  A    between atoms: _624  and  _625
REMARK  268  A    between atoms: _625  and  _626
REMARK  269  A    between atoms: _626  and  _627
REMARK                            x       y       z     vdW  Elec       q    Type
REMARK                         _______ _______ _______ _____ _____    ______ ____
ROOT
ATOM      1  O   HOH     1      15.388   5.254  67.206  0.00  0.00    +0.000 OA
ENDROOT
TORSDOF 0
REMARK  Name = ../refined-set-2016/3v51/3v51_pocket.pdb
REMARK  269 active torsions:
REMARK  status: ('A' for Active; 'I' for Inactive)
REMARK    1  A    between atoms: _1  and  _3
REMARK    2  A    between atoms: _3  and  _4
REMARK    3  A    between atoms: _3  and  _6
REMARK    4  A    between atoms: _6  and  _7
REMARK    5  A    between atoms: _7  and  _8
REMARK    6  A    between atoms: _8  and  _9
REMARK    7  A    between atoms: _18  and  _20
REMARK    8  A    between atoms: _20  and  _21
REMARK    9  A    between atoms: _20  and  _23
REMARK   10  A    between atoms: _26  and  _28
REMARK   11  A    between atoms: _28  and  _29
REMARK   12  A    between atoms: _28  and  _31
REMARK   13  A    between atoms: _31  and  _32
REMARK   14  A    between atoms: _35  and  _37
REMARK   15  A    between atoms: _37  and  _38
REMARK   16  A    between atoms: _40  and  _42
REMARK   17  A    between atoms: _42  and  _43
REMARK   18  A    between atoms: _42  and  _45
REMARK   19  A    between atoms: _45  and  _46
REMARK   20  A    between atoms: _46  and  _47
REMARK   21  A    between atoms: _47  and  _48
REMARK   22  A    between atoms: _48  and  _49
REMARK   23  A    between atoms: _53  and  _55
REMARK   24  A    between atoms: _55  and  _56
REMARK   25  A    between atoms: _58  and  _60
REMARK   26  A    between atoms: _60  and  _61
REMARK   27  A    between atoms: _60  and  _63
REMARK   28  A    between atoms: _63  and  _64
REMARK   29  A    between atoms: _68  and  _69
REMARK   30  A    between atoms: _71  and  _73
REMARK   31  A    between atoms: _73  and  _74
REMARK   32  A    between atoms: _73  and  _76
REMARK   33  A    between atoms: _76  and  _77
REMARK   34  A    between atoms: _77  and  _78
REMARK   35  A    between atoms: _81  and  _83
REMARK   36  A    between atoms: _83  and  _84
REMARK   37  A    between atoms: _83  and  _86
REMARK   38  A    between atoms: _89  and  _91
REMARK   39  A    between atoms: _91  and  _92
REMARK   40  A    between atoms: _91  and  _94
REMARK   41  A    between atoms: _94  and  _95
REMARK   42  A    between atoms: _98  and  _100
REMARK   43  A    between atoms: _100  and  _101
REMARK   44  A    between atoms: _100  and  _103
REMARK   45  A    between atoms: _103  and  _104
REMARK   46  A    between atoms: _107  and  _109
REMARK   47  A    between atoms: _109  and  _110
REMARK   48  A    between atoms: _109  and  _112
REMARK   49  A    between atoms: _114  and  _116
REMARK   50  A    between atoms: _116  and  _117
REMARK   51  A    between atoms: _120  and  _122
REMARK   52  A    between atoms: _122  and  _123
REMARK   53  A    between atoms: _122  and  _125
REMARK   54  A    between atoms: _128  and  _130
REMARK   55  A    between atoms: _130  and  _131
REMARK   56  A    between atoms: _130  and  _133
REMARK   57  A    between atoms: _133  and  _134
REMARK   58  A    between atoms: _134  and  _135
REMARK   59  A    between atoms: _135  and  _136
REMARK   60  A    between atoms: _136  and  _137
REMARK   61  A    between atoms: _141  and  _143
REMARK   62  A    between atoms: _143  and  _144
REMARK   63  A    between atoms: _143  and  _146
REMARK   64  A    between atoms: _149  and  _151
REMARK   65  A    between atoms: _151  and  _152
REMARK   66  A    between atoms: _151  and  _154
REMARK   67  A    between atoms: _154  and  _155
REMARK   68  A    between atoms: _158  and  _160
REMARK   69  A    between atoms: _160  and  _161
REMARK   70  A    between atoms: _160  and  _163
REMARK   71  A    between atoms: _163  and  _164
REMARK   72  A    between atoms: _167  and  _169
REMARK   73  A    between atoms: _169  and  _170
REMARK   74  A    between atoms: _169  and  _172
REMARK   75  A    between atoms: _172  and  _173
REMARK   76  A    between atoms: _175  and  _177
REMARK   77  A    between atoms: _177  and  _178
REMARK   78  A    between atoms: _177  and  _180
REMARK   79  A    between atoms: _180  and  _181
REMARK   80  A    between atoms: _184  and  _186
REMARK   81  A    between atoms: _186  and  _187
REMARK   82  A    between atoms: _186  and  _189
REMARK   83  A    between atoms: _189  and  _190
REMARK   84  A    between atoms: _193  and  _195
REMARK   85  A    between atoms: _195  and  _196
REMARK   86  A    between atoms: _195  and  _198
REMARK   87  A    between atoms: _198  and  _199
REMARK   88  A    between atoms: _199  and  _200
REMARK   89  A    between atoms: _203  and  _205
REMARK   90  A    between atoms: _205  and  _206
REMARK   91  A    between atoms: _205  and  _208
REMARK   92  A    between atoms: _211  and  _213
REMARK   93  A    between atoms: _213  and  _214
REMARK   94  A    between atoms: _213  and  _216
REMARK   95  A    between atoms: _216  and  _217
REMARK   96  A    between atoms: _217  and  _218
REMARK   97  A    between atoms: _223  and  _225
REMARK   98  A    between atoms: _225  and  _226
REMARK   99  A    between atoms: _225  and  _228
REMARK  100  A    between atoms: _228  and  _229
REMARK  101  A    between atoms: _232  and  _234
REMARK  102  A    between atoms: _234  and  _235
REMARK  103  A    between atoms: _234  and  _237
REMARK  104  A    between atoms: _237  and  _238
REMARK  105  A    between atoms: _238  and  _239
REMARK  106  A    between atoms: _239  and  _240
REMARK  107  A    between atoms: _240  and  _241
REMARK  108  A    between atoms: _245  and  _247
REMARK  109  A    between atoms: _247  and  _248
REMARK  110  A    between atoms: _247  and  _250
REMARK  111  A    between atoms: _250  and  _251
REMARK  112  A    between atoms: _251  and  _252
REMARK  113  A    between atoms: _254  and  _256
REMARK  114  A    between atoms: _256  and  _257
REMARK  115  A    between atoms: _256  and  _259
REMARK  116  A    between atoms: _259  and  _260
REMARK  117  A    between atoms: _260  and  _261
REMARK  118  A    between atoms: _261  and  _262
REMARK  119  A    between atoms: _262  and  _263
REMARK  120  A    between atoms: _267  and  _269
REMARK  121  A    between atoms: _269  and  _270
REMARK  122  A    between atoms: _269  and  _272
REMARK  123  A    between atoms: _272  and  _273
REMARK  124  A    between atoms: _276  and  _278
REMARK  125  A    between atoms: _278  and  _279
REMARK  126  A    between atoms: _278  and  _281
REMARK  127  A    between atoms: _281  and  _282
REMARK  128  A    between atoms: _287  and  _288
REMARK  129  A    between atoms: _290  and  _292
REMARK  130  A    between atoms: _292  and  _293
REMARK  131  A    between atoms: _292  and  _295
REMARK  132  A    between atoms: _295  and  _296
REMARK  133  A    between atoms: _296  and  _297
REMARK  134  A    between atoms: _300  and  _302
REMARK  135  A    between atoms: _302  and  _303
REMARK  136  A    between atoms: _302  and  _305
REMARK  137  A    between atoms: _305  and  _306
REMARK  138  A    between atoms: _312  and  _314
REMARK  139  A    between atoms: _314  and  _315
REMARK  140  A    between atoms: _314  and  _317
REMARK  141  A    between atoms: _317  and  _318
REMARK  142  A    between atoms: _324  and  _326
REMARK  143  A    between atoms: _326  and  _327
REMARK  144  A    between atoms: _326  and  _329
REMARK  145  A    between atoms: _329  and  _330
REMARK  146  A    between atoms: _336  and  _338
REMARK  147  A    between atoms: _338  and  _339
REMARK  148  A    between atoms: _338  and  _341
REMARK  149  A    between atoms: _341  and  _342
REMARK  150  A    between atoms: _347  and  _348
REMARK  151  A    between atoms: _350  and  _352
REMARK  152  A    between atoms: _352  and  _353
REMARK  153  A    between atoms: _352  and  _355
REMARK  154  A    between atoms: _355  and  _356
REMARK  155  A    between atoms: _359  and  _361
REMARK  156  A    between atoms: _361  and  _362
REMARK  157  A    between atoms: _361  and  _364
REMARK  158  A    between atoms: _367  and  _369
REMARK  159  A    between atoms: _369  and  _370
REMARK  160  A    between atoms: _372  and  _374
REMARK  161  A    between atoms: _374  and  _375
REMARK  162  A    between atoms: _374  and  _377
REMARK  163  A    between atoms: _377  and  _378
REMARK  164  A    between atoms: _378  and  _379
REMARK  165  A    between atoms: _382  and  _384
REMARK  166  A    between atoms: _384  and  _385
REMARK  167  A    between atoms: _384  and  _387
REMARK  168  A    between atoms: _390  and  _392
REMARK  169  A    between atoms: _392  and  _393
REMARK  170  A    between atoms: _392  and  _395
REMARK  171  A    between atoms: _395  and  _396
REMARK  172  A    between atoms: _401  and  _402
REMARK  173  A    between atoms: _404  and  _406
REMARK  174  A    between atoms: _406  and  _407
REMARK  175  A    between atoms: _406  and  _409
REMARK  176  A    between atoms: _409  and  _410
REMARK  177  A    between atoms: _413  and  _415
REMARK  178  A    between atoms: _415  and  _416
REMARK  179  A    between atoms: _418  and  _420
REMARK  180  A    between atoms: _420  and  _421
REMARK  181  A    between atoms: _423  and  _425
REMARK  182  A    between atoms: _425  and  _426
REMARK  183  A    between atoms: _425  and  _428
REMARK  184  A    between atoms: _428  and  _429
REMARK  185  A    between atoms: _429  and  _430
REMARK  186  A    between atoms: _433  and  _435
REMARK  187  A    between atoms: _435  and  _436
REMARK  188  A    between atoms: _435  and  _438
REMARK  189  A    between atoms: _438  and  _439
REMARK  190  A    between atoms: _442  and  _444
REMARK  191  A    between atoms: _444  and  _445
REMARK  192  A    between atoms: _444  and  _447
REMARK  193  A    between atoms: _450  and  _452
REMARK  194  A    between atoms: _452  and  _453
REMARK  195  A    between atoms: _452  and  _455
REMARK  196  A    between atoms: _455  and  _456
REMARK  197  A    between atoms: _456  and  _457
REMARK  198  A    between atoms: _460  and  _462
REMARK  199  A    between atoms: _462  and  _463
REMARK  200  A    between atoms: _462  and  _465
REMARK  201  A    between atoms: _465  and  _466
REMARK  202  A    between atoms: _471  and  _473
REMARK  203  A    between atoms: _473  and  _474
REMARK  204  A    between atoms: _473  and  _476
REMARK  205  A    between atoms: _476  and  _477
REMARK  206  A    between atoms: _480  and  _482
REMARK  207  A    between atoms: _482  and  _483
REMARK  208  A    between atoms: _482  and  _485
REMARK  209  A    between atoms: _485  and  _486
REMARK  210  A    between atoms: _489  and  _491
REMARK  211  A    between atoms: _491  and  _492
REMARK  212  A    between atoms: _491  and  _494
REMARK  213  A    between atoms: _494  and  _495
REMARK  214  A    between atoms: _498  and  _500
REMARK  215  A    between atoms: _500  and  _501
REMARK  216  A    between atoms: _500  and  _503
REMARK  217  A    between atoms: _503  and  _504
REMARK  218  A    between atoms: _504  and  _505
REMARK  219  A    between atoms: _508  and  _510
REMARK  220  A    between atoms: _510  and  _511
REMARK  221  A    between atoms: _510  and  _513
REMARK  222  A    between atoms: _513  and  _514
REMARK  223  A    between atoms: _514  and  _515
REMARK  224  A    between atoms: _515  and  _516
REMARK  225  A    between atoms: _525  and  _527
REMARK  226  A    between atoms: _527  and  _528
REMARK  227  A    between atoms: _527  and  _530
REMARK  228  A    between atoms: _530  and  _531
REMARK  229  A    between atoms: _534  and  _536
REMARK  230  A    between atoms: _536  and  _537
REMARK  231  A    between atoms: _536  and  _539
REMARK  232  A    between atoms: _539  and  _540
REMARK  233  A    between atoms: _543  and  _545
REMARK  234  A    between atoms: _545  and  _546
REMARK  235  A    between atoms: _545  and  _548
REMARK  236  A    between atoms: _548  and  _549
REMARK  237  A    between atoms: _552  and  _554
REMARK  238  A    between atoms: _554  and  _555
REMARK  239  A    between atoms: _554  and  _557
REMARK  240  A    between atoms: _557  and  _558
REMARK  241  A    between atoms: _564  and  _566
REMARK  242  A    between atoms: _566  and  _567
REMARK  243  A    between atoms: _569  and  _571
REMARK  244  A    between atoms: _571  and  _572
REMARK  245  A    between atoms: _571  and  _574
REMARK  246  A    between atoms: _574  and  _575
REMARK  247  A    between atoms: _578  and  _580
REMARK  248  A    between atoms: _580  and  _581
REMARK  249  A    between atoms: _580  and  _583
REMARK  250  A    between atoms: _583  and  _584
REMARK  251  A    between atoms: _586  and  _588
REMARK  252  A    between atoms: _588  and  _589
REMARK  253  A    between atoms: _588  and  _591
REMARK  254  A    between atoms: _591  and  _592
REMARK  255  A    between atoms: _595  and  _597
REMARK  256  A    between atoms: _597  and  _598
REMARK  257  A    between atoms: _597  and  _600
REMARK  258  A    between atoms: _600  and  _601
REMARK  259  A    between atoms: _606  and  _608
REMARK  260  A    between atoms: _608  and  _609
REMARK  261  A    between atoms: _608  and  _611
REMARK  262  A    between atoms: _611  and  _612
REMARK  263  A    between atoms: _618  and  _620
REMARK  264  A    between atoms: _620  and  _621
REMARK  265  A    between atoms: _620  and  _623
REMARK  266  A    between atoms: _623  and  _624
REMARK  267  A    between atoms: _624  and  _625
REMARK  268  A    between atoms: _625  and  _626
REMARK  269  A    between atoms: _626  and  _627
REMARK                            x       y       z     vdW  Elec       q    Type
REMARK                         _______ _______ _______ _____ _____    ______ ____
ROOT
ATOM      1  O   HOH     1       6.525  12.999  59.314  0.00  0.00    +0.000 OA
ENDROOT
TORSDOF 0
REMARK  Name = ../refined-set-2016/3v51/3v51_pocket.pdb
REMARK  269 active torsions:
REMARK  status: ('A' for Active; 'I' for Inactive)
REMARK    1  A    between atoms: _1  and  _3
REMARK    2  A    between atoms: _3  and  _4
REMARK    3  A    between atoms: _3  and  _6
REMARK    4  A    between atoms: _6  and  _7
REMARK    5  A    between atoms: _7  and  _8
REMARK    6  A    between atoms: _8  and  _9
REMARK    7  A    between atoms: _18  and  _20
REMARK    8  A    between atoms: _20  and  _21
REMARK    9  A    between atoms: _20  and  _23
REMARK   10  A    between atoms: _26  and  _28
REMARK   11  A    between atoms: _28  and  _29
REMARK   12  A    between atoms: _28  and  _31
REMARK   13  A    between atoms: _31  and  _32
REMARK   14  A    between atoms: _35  and  _37
REMARK   15  A    between atoms: _37  and  _38
REMARK   16  A    between atoms: _40  and  _42
REMARK   17  A    between atoms: _42  and  _43
REMARK   18  A    between atoms: _42  and  _45
REMARK   19  A    between atoms: _45  and  _46
REMARK   20  A    between atoms: _46  and  _47
REMARK   21  A    between atoms: _47  and  _48
REMARK   22  A    between atoms: _48  and  _49
REMARK   23  A    between atoms: _53  and  _55
REMARK   24  A    between atoms: _55  and  _56
REMARK   25  A    between atoms: _58  and  _60
REMARK   26  A    between atoms: _60  and  _61
REMARK   27  A    between atoms: _60  and  _63
REMARK   28  A    between atoms: _63  and  _64
REMARK   29  A    between atoms: _68  and  _69
REMARK   30  A    between atoms: _71  and  _73
REMARK   31  A    between atoms: _73  and  _74
REMARK   32  A    between atoms: _73  and  _76
REMARK   33  A    between atoms: _76  and  _77
REMARK   34  A    between atoms: _77  and  _78
REMARK   35  A    between atoms: _81  and  _83
REMARK   36  A    between atoms: _83  and  _84
REMARK   37  A    between atoms: _83  and  _86
REMARK   38  A    between atoms: _89  and  _91
REMARK   39  A    between atoms: _91  and  _92
REMARK   40  A    between atoms: _91  and  _94
REMARK   41  A    between atoms: _94  and  _95
REMARK   42  A    between atoms: _98  and  _100
REMARK   43  A    between atoms: _100  and  _101
REMARK   44  A    between atoms: _100  and  _103
REMARK   45  A    between atoms: _103  and  _104
REMARK   46  A    between atoms: _107  and  _109
REMARK   47  A    between atoms: _109  and  _110
REMARK   48  A    between atoms: _109  and  _112
REMARK   49  A    between atoms: _114  and  _116
REMARK   50  A    between atoms: _116  and  _117
REMARK   51  A    between atoms: _120  and  _122
REMARK   52  A    between atoms: _122  and  _123
REMARK   53  A    between atoms: _122  and  _125
REMARK   54  A    between atoms: _128  and  _130
REMARK   55  A    between atoms: _130  and  _131
REMARK   56  A    between atoms: _130  and  _133
REMARK   57  A    between atoms: _133  and  _134
REMARK   58  A    between atoms: _134  and  _135
REMARK   59  A    between atoms: _135  and  _136
REMARK   60  A    between atoms: _136  and  _137
REMARK   61  A    between atoms: _141  and  _143
REMARK   62  A    between atoms: _143  and  _144
REMARK   63  A    between atoms: _143  and  _146
REMARK   64  A    between atoms: _149  and  _151
REMARK   65  A    between atoms: _151  and  _152
REMARK   66  A    between atoms: _151  and  _154
REMARK   67  A    between atoms: _154  and  _155
REMARK   68  A    between atoms: _158  and  _160
REMARK   69  A    between atoms: _160  and  _161
REMARK   70  A    between atoms: _160  and  _163
REMARK   71  A    between atoms: _163  and  _164
REMARK   72  A    between atoms: _167  and  _169
REMARK   73  A    between atoms: _169  and  _170
REMARK   74  A    between atoms: _169  and  _172
REMARK   75  A    between atoms: _172  and  _173
REMARK   76  A    between atoms: _175  and  _177
REMARK   77  A    between atoms: _177  and  _178
REMARK   78  A    between atoms: _177  and  _180
REMARK   79  A    between atoms: _180  and  _181
REMARK   80  A    between atoms: _184  and  _186
REMARK   81  A    between atoms: _186  and  _187
REMARK   82  A    between atoms: _186  and  _189
REMARK   83  A    between atoms: _189  and  _190
REMARK   84  A    between atoms: _193  and  _195
REMARK   85  A    between atoms: _195  and  _196
REMARK   86  A    between atoms: _195  and  _198
REMARK   87  A    between atoms: _198  and  _199
REMARK   88  A    between atoms: _199  and  _200
REMARK   89  A    between atoms: _203  and  _205
REMARK   90  A    between atoms: _205  and  _206
REMARK   91  A    between atoms: _205  and  _208
REMARK   92  A    between atoms: _211  and  _213
REMARK   93  A    between atoms: _213  and  _214
REMARK   94  A    between atoms: _213  and  _216
REMARK   95  A    between atoms: _216  and  _217
REMARK   96  A    between atoms: _217  and  _218
REMARK   97  A    between atoms: _223  and  _225
REMARK   98  A    between atoms: _225  and  _226
REMARK   99  A    between atoms: _225  and  _228
REMARK  100  A    between atoms: _228  and  _229
REMARK  101  A    between atoms: _232  and  _234
REMARK  102  A    between atoms: _234  and  _235
REMARK  103  A    between atoms: _234  and  _237
REMARK  104  A    between atoms: _237  and  _238
REMARK  105  A    between atoms: _238  and  _239
REMARK  106  A    between atoms: _239  and  _240
REMARK  107  A    between atoms: _240  and  _241
REMARK  108  A    between atoms: _245  and  _247
REMARK  109  A    between atoms: _247  and  _248
REMARK  110  A    between atoms: _247  and  _250
REMARK  111  A    between atoms: _250  and  _251
REMARK  112  A    between atoms: _251  and  _252
REMARK  113  A    between atoms: _254  and  _256
REMARK  114  A    between atoms: _256  and  _257
REMARK  115  A    between atoms: _256  and  _259
REMARK  116  A    between atoms: _259  and  _260
REMARK  117  A    between atoms: _260  and  _261
REMARK  118  A    between atoms: _261  and  _262
REMARK  119  A    between atoms: _262  and  _263
REMARK  120  A    between atoms: _267  and  _269
REMARK  121  A    between atoms: _269  and  _270
REMARK  122  A    between atoms: _269  and  _272
REMARK  123  A    between atoms: _272  and  _273
REMARK  124  A    between atoms: _276  and  _278
REMARK  125  A    between atoms: _278  and  _279
REMARK  126  A    between atoms: _278  and  _281
REMARK  127  A    between atoms: _281  and  _282
REMARK  128  A    between atoms: _287  and  _288
REMARK  129  A    between atoms: _290  and  _292
REMARK  130  A    between atoms: _292  and  _293
REMARK  131  A    between atoms: _292  and  _295
REMARK  132  A    between atoms: _295  and  _296
REMARK  133  A    between atoms: _296  and  _297
REMARK  134  A    between atoms: _300  and  _302
REMARK  135  A    between atoms: _302  and  _303
REMARK  136  A    between atoms: _302  and  _305
REMARK  137  A    between atoms: _305  and  _306
REMARK  138  A    between atoms: _312  and  _314
REMARK  139  A    between atoms: _314  and  _315
REMARK  140  A    between atoms: _314  and  _317
REMARK  141  A    between atoms: _317  and  _318
REMARK  142  A    between atoms: _324  and  _326
REMARK  143  A    between atoms: _326  and  _327
REMARK  144  A    between atoms: _326  and  _329
REMARK  145  A    between atoms: _329  and  _330
REMARK  146  A    between atoms: _336  and  _338
REMARK  147  A    between atoms: _338  and  _339
REMARK  148  A    between atoms: _338  and  _341
REMARK  149  A    between atoms: _341  and  _342
REMARK  150  A    between atoms: _347  and  _348
REMARK  151  A    between atoms: _350  and  _352
REMARK  152  A    between atoms: _352  and  _353
REMARK  153  A    between atoms: _352  and  _355
REMARK  154  A    between atoms: _355  and  _356
REMARK  155  A    between atoms: _359  and  _361
REMARK  156  A    between atoms: _361  and  _362
REMARK  157  A    between atoms: _361  and  _364
REMARK  158  A    between atoms: _367  and  _369
REMARK  159  A    between atoms: _369  and  _370
REMARK  160  A    between atoms: _372  and  _374
REMARK  161  A    between atoms: _374  and  _375
REMARK  162  A    between atoms: _374  and  _377
REMARK  163  A    between atoms: _377  and  _378
REMARK  164  A    between atoms: _378  and  _379
REMARK  165  A    between atoms: _382  and  _384
REMARK  166  A    between atoms: _384  and  _385
REMARK  167  A    between atoms: _384  and  _387
REMARK  168  A    between atoms: _390  and  _392
REMARK  169  A    between atoms: _392  and  _393
REMARK  170  A    between atoms: _392  and  _395
REMARK  171  A    between atoms: _395  and  _396
REMARK  172  A    between atoms: _401  and  _402
REMARK  173  A    between atoms: _404  and  _406
REMARK  174  A    between atoms: _406  and  _407
REMARK  175  A    between atoms: _406  and  _409
REMARK  176  A    between atoms: _409  and  _410
REMARK  177  A    between atoms: _413  and  _415
REMARK  178  A    between atoms: _415  and  _416
REMARK  179  A    between atoms: _418  and  _420
REMARK  180  A    between atoms: _420  and  _421
REMARK  181  A    between atoms: _423  and  _425
REMARK  182  A    between atoms: _425  and  _426
REMARK  183  A    between atoms: _425  and  _428
REMARK  184  A    between atoms: _428  and  _429
REMARK  185  A    between atoms: _429  and  _430
REMARK  186  A    between atoms: _433  and  _435
REMARK  187  A    between atoms: _435  and  _436
REMARK  188  A    between atoms: _435  and  _438
REMARK  189  A    between atoms: _438  and  _439
REMARK  190  A    between atoms: _442  and  _444
REMARK  191  A    between atoms: _444  and  _445
REMARK  192  A    between atoms: _444  and  _447
REMARK  193  A    between atoms: _450  and  _452
REMARK  194  A    between atoms: _452  and  _453
REMARK  195  A    between atoms: _452  and  _455
REMARK  196  A    between atoms: _455  and  _456
REMARK  197  A    between atoms: _456  and  _457
REMARK  198  A    between atoms: _460  and  _462
REMARK  199  A    between atoms: _462  and  _463
REMARK  200  A    between atoms: _462  and  _465
REMARK  201  A    between atoms: _465  and  _466
REMARK  202  A    between atoms: _471  and  _473
REMARK  203  A    between atoms: _473  and  _474
REMARK  204  A    between atoms: _473  and  _476
REMARK  205  A    between atoms: _476  and  _477
REMARK  206  A    between atoms: _480  and  _482
REMARK  207  A    between atoms: _482  and  _483
REMARK  208  A    between atoms: _482  and  _485
REMARK  209  A    between atoms: _485  and  _486
REMARK  210  A    between atoms: _489  and  _491
REMARK  211  A    between atoms: _491  and  _492
REMARK  212  A    between atoms: _491  and  _494
REMARK  213  A    between atoms: _494  and  _495
REMARK  214  A    between atoms: _498  and  _500
REMARK  215  A    between atoms: _500  and  _501
REMARK  216  A    between atoms: _500  and  _503
REMARK  217  A    between atoms: _503  and  _504
REMARK  218  A    between atoms: _504  and  _505
REMARK  219  A    between atoms: _508  and  _510
REMARK  220  A    between atoms: _510  and  _511
REMARK  221  A    between atoms: _510  and  _513
REMARK  222  A    between atoms: _513  and  _514
REMARK  223  A    between atoms: _514  and  _515
REMARK  224  A    between atoms: _515  and  _516
REMARK  225  A    between atoms: _525  and  _527
REMARK  226  A    between atoms: _527  and  _528
REMARK  227  A    between atoms: _527  and  _530
REMARK  228  A    between atoms: _530  and  _531
REMARK  229  A    between atoms: _534  and  _536
REMARK  230  A    between atoms: _536  and  _537
REMARK  231  A    between atoms: _536  and  _539
REMARK  232  A    between atoms: _539  and  _540
REMARK  233  A    between atoms: _543  and  _545
REMARK  234  A    between atoms: _545  and  _546
REMARK  235  A    between atoms: _545  and  _548
REMARK  236  A    between atoms: _548  and  _549
REMARK  237  A    between atoms: _552  and  _554
REMARK  238  A    between atoms: _554  and  _555
REMARK  239  A    between atoms: _554  and  _557
REMARK  240  A    between atoms: _557  and  _558
REMARK  241  A    between atoms: _564  and  _566
REMARK  242  A    between atoms: _566  and  _567
REMARK  243  A    between atoms: _569  and  _571
REMARK  244  A    between atoms: _571  and  _572
REMARK  245  A    between atoms: _571  and  _574
REMARK  246  A    between atoms: _574  and  _575
REMARK  247  A    between atoms: _578  and  _580
REMARK  248  A    between atoms: _580  and  _581
REMARK  249  A    between atoms: _580  and  _583
REMARK  250  A    between atoms: _583  and  _584
REMARK  251  A    between atoms: _586  and  _588
REMARK  252  A    between atoms: _588  and  _589
REMARK  253  A    between atoms: _588  and  _591
REMARK  254  A    between atoms: _591  and  _592
REMARK  255  A    between atoms: _595  and  _597
REMARK  256  A    between atoms: _597  and  _598
REMARK  257  A    between atoms: _597  and  _600
REMARK  258  A    between atoms: _600  and  _601
REMARK  259  A    between atoms: _606  and  _608
REMARK  260  A    between atoms: _608  and  _609
REMARK  261  A    between atoms: _608  and  _611
REMARK  262  A    between atoms: _611  and  _612
REMARK  263  A    between atoms: _618  and  _620
REMARK  264  A    between atoms: _620  and  _621
REMARK  265  A    between atoms: _620  and  _623
REMARK  266  A    between atoms: _623  and  _624
REMARK  267  A    between atoms: _624  and  _625
REMARK  268  A    between atoms: _625  and  _626
REMARK  269  A    between atoms: _626  and  _627
REMARK                            x       y       z     vdW  Elec       q    Type
REMARK                         _______ _______ _______ _____ _____    ______ ____
ROOT
ATOM      1  O   HOH     1       3.783  20.006  59.269  0.00  0.00    +0.000 OA
ENDROOT
TORSDOF 0
REMARK  Name = ../refined-set-2016/3v51/3v51_pocket.pdb
REMARK  269 active torsions:
REMARK  status: ('A' for Active; 'I' for Inactive)
REMARK    1  A    between atoms: _1  and  _3
REMARK    2  A    between atoms: _3  and  _4
REMARK    3  A    between atoms: _3  and  _6
REMARK    4  A    between atoms: _6  and  _7
REMARK    5  A    between atoms: _7  and  _8
REMARK    6  A    between atoms: _8  and  _9
REMARK    7  A    between atoms: _18  and  _20
REMARK    8  A    between atoms: _20  and  _21
REMARK    9  A    between atoms: _20  and  _23
REMARK   10  A    between atoms: _26  and  _28
REMARK   11  A    between atoms: _28  and  _29
REMARK   12  A    between atoms: _28  and  _31
REMARK   13  A    between atoms: _31  and  _32
REMARK   14  A    between atoms: _35  and  _37
REMARK   15  A    between atoms: _37  and  _38
REMARK   16  A    between atoms: _40  and  _42
REMARK   17  A    between atoms: _42  and  _43
REMARK   18  A    between atoms: _42  and  _45
REMARK   19  A    between atoms: _45  and  _46
REMARK   20  A    between atoms: _46  and  _47
REMARK   21  A    between atoms: _47  and  _48
REMARK   22  A    between atoms: _48  and  _49
REMARK   23  A    between atoms: _53  and  _55
REMARK   24  A    between atoms: _55  and  _56
REMARK   25  A    between atoms: _58  and  _60
REMARK   26  A    between atoms: _60  and  _61
REMARK   27  A    between atoms: _60  and  _63
REMARK   28  A    between atoms: _63  and  _64
REMARK   29  A    between atoms: _68  and  _69
REMARK   30  A    between atoms: _71  and  _73
REMARK   31  A    between atoms: _73  and  _74
REMARK   32  A    between atoms: _73  and  _76
REMARK   33  A    between atoms: _76  and  _77
REMARK   34  A    between atoms: _77  and  _78
REMARK   35  A    between atoms: _81  and  _83
REMARK   36  A    between atoms: _83  and  _84
REMARK   37  A    between atoms: _83  and  _86
REMARK   38  A    between atoms: _89  and  _91
REMARK   39  A    between atoms: _91  and  _92
REMARK   40  A    between atoms: _91  and  _94
REMARK   41  A    between atoms: _94  and  _95
REMARK   42  A    between atoms: _98  and  _100
REMARK   43  A    between atoms: _100  and  _101
REMARK   44  A    between atoms: _100  and  _103
REMARK   45  A    between atoms: _103  and  _104
REMARK   46  A    between atoms: _107  and  _109
REMARK   47  A    between atoms: _109  and  _110
REMARK   48  A    between atoms: _109  and  _112
REMARK   49  A    between atoms: _114  and  _116
REMARK   50  A    between atoms: _116  and  _117
REMARK   51  A    between atoms: _120  and  _122
REMARK   52  A    between atoms: _122  and  _123
REMARK   53  A    between atoms: _122  and  _125
REMARK   54  A    between atoms: _128  and  _130
REMARK   55  A    between atoms: _130  and  _131
REMARK   56  A    between atoms: _130  and  _133
REMARK   57  A    between atoms: _133  and  _134
REMARK   58  A    between atoms: _134  and  _135
REMARK   59  A    between atoms: _135  and  _136
REMARK   60  A    between atoms: _136  and  _137
REMARK   61  A    between atoms: _141  and  _143
REMARK   62  A    between atoms: _143  and  _144
REMARK   63  A    between atoms: _143  and  _146
REMARK   64  A    between atoms: _149  and  _151
REMARK   65  A    between atoms: _151  and  _152
REMARK   66  A    between atoms: _151  and  _154
REMARK   67  A    between atoms: _154  and  _155
REMARK   68  A    between atoms: _158  and  _160
REMARK   69  A    between atoms: _160  and  _161
REMARK   70  A    between atoms: _160  and  _163
REMARK   71  A    between atoms: _163  and  _164
REMARK   72  A    between atoms: _167  and  _169
REMARK   73  A    between atoms: _169  and  _170
REMARK   74  A    between atoms: _169  and  _172
REMARK   75  A    between atoms: _172  and  _173
REMARK   76  A    between atoms: _175  and  _177
REMARK   77  A    between atoms: _177  and  _178
REMARK   78  A    between atoms: _177  and  _180
REMARK   79  A    between atoms: _180  and  _181
REMARK   80  A    between atoms: _184  and  _186
REMARK   81  A    between atoms: _186  and  _187
REMARK   82  A    between atoms: _186  and  _189
REMARK   83  A    between atoms: _189  and  _190
REMARK   84  A    between atoms: _193  and  _195
REMARK   85  A    between atoms: _195  and  _196
REMARK   86  A    between atoms: _195  and  _198
REMARK   87  A    between atoms: _198  and  _199
REMARK   88  A    between atoms: _199  and  _200
REMARK   89  A    between atoms: _203  and  _205
REMARK   90  A    between atoms: _205  and  _206
REMARK   91  A    between atoms: _205  and  _208
REMARK   92  A    between atoms: _211  and  _213
REMARK   93  A    between atoms: _213  and  _214
REMARK   94  A    between atoms: _213  and  _216
REMARK   95  A    between atoms: _216  and  _217
REMARK   96  A    between atoms: _217  and  _218
REMARK   97  A    between atoms: _223  and  _225
REMARK   98  A    between atoms: _225  and  _226
REMARK   99  A    between atoms: _225  and  _228
REMARK  100  A    between atoms: _228  and  _229
REMARK  101  A    between atoms: _232  and  _234
REMARK  102  A    between atoms: _234  and  _235
REMARK  103  A    between atoms: _234  and  _237
REMARK  104  A    between atoms: _237  and  _238
REMARK  105  A    between atoms: _238  and  _239
REMARK  106  A    between atoms: _239  and  _240
REMARK  107  A    between atoms: _240  and  _241
REMARK  108  A    between atoms: _245  and  _247
REMARK  109  A    between atoms: _247  and  _248
REMARK  110  A    between atoms: _247  and  _250
REMARK  111  A    between atoms: _250  and  _251
REMARK  112  A    between atoms: _251  and  _252
REMARK  113  A    between atoms: _254  and  _256
REMARK  114  A    between atoms: _256  and  _257
REMARK  115  A    between atoms: _256  and  _259
REMARK  116  A    between atoms: _259  and  _260
REMARK  117  A    between atoms: _260  and  _261
REMARK  118  A    between atoms: _261  and  _262
REMARK  119  A    between atoms: _262  and  _263
REMARK  120  A    between atoms: _267  and  _269
REMARK  121  A    between atoms: _269  and  _270
REMARK  122  A    between atoms: _269  and  _272
REMARK  123  A    between atoms: _272  and  _273
REMARK  124  A    between atoms: _276  and  _278
REMARK  125  A    between atoms: _278  and  _279
REMARK  126  A    between atoms: _278  and  _281
REMARK  127  A    between atoms: _281  and  _282
REMARK  128  A    between atoms: _287  and  _288
REMARK  129  A    between atoms: _290  and  _292
REMARK  130  A    between atoms: _292  and  _293
REMARK  131  A    between atoms: _292  and  _295
REMARK  132  A    between atoms: _295  and  _296
REMARK  133  A    between atoms: _296  and  _297
REMARK  134  A    between atoms: _300  and  _302
REMARK  135  A    between atoms: _302  and  _303
REMARK  136  A    between atoms: _302  and  _305
REMARK  137  A    between atoms: _305  and  _306
REMARK  138  A    between atoms: _312  and  _314
REMARK  139  A    between atoms: _314  and  _315
REMARK  140  A    between atoms: _314  and  _317
REMARK  141  A    between atoms: _317  and  _318
REMARK  142  A    between atoms: _324  and  _326
REMARK  143  A    between atoms: _326  and  _327
REMARK  144  A    between atoms: _326  and  _329
REMARK  145  A    between atoms: _329  and  _330
REMARK  146  A    between atoms: _336  and  _338
REMARK  147  A    between atoms: _338  and  _339
REMARK  148  A    between atoms: _338  and  _341
REMARK  149  A    between atoms: _341  and  _342
REMARK  150  A    between atoms: _347  and  _348
REMARK  151  A    between atoms: _350  and  _352
REMARK  152  A    between atoms: _352  and  _353
REMARK  153  A    between atoms: _352  and  _355
REMARK  154  A    between atoms: _355  and  _356
REMARK  155  A    between atoms: _359  and  _361
REMARK  156  A    between atoms: _361  and  _362
REMARK  157  A    between atoms: _361  and  _364
REMARK  158  A    between atoms: _367  and  _369
REMARK  159  A    between atoms: _369  and  _370
REMARK  160  A    between atoms: _372  and  _374
REMARK  161  A    between atoms: _374  and  _375
REMARK  162  A    between atoms: _374  and  _377
REMARK  163  A    between atoms: _377  and  _378
REMARK  164  A    between atoms: _378  and  _379
REMARK  165  A    between atoms: _382  and  _384
REMARK  166  A    between atoms: _384  and  _385
REMARK  167  A    between atoms: _384  and  _387
REMARK  168  A    between atoms: _390  and  _392
REMARK  169  A    between atoms: _392  and  _393
REMARK  170  A    between atoms: _392  and  _395
REMARK  171  A    between atoms: _395  and  _396
REMARK  172  A    between atoms: _401  and  _402
REMARK  173  A    between atoms: _404  and  _406
REMARK  174  A    between atoms: _406  and  _407
REMARK  175  A    between atoms: _406  and  _409
REMARK  176  A    between atoms: _409  and  _410
REMARK  177  A    between atoms: _413  and  _415
REMARK  178  A    between atoms: _415  and  _416
REMARK  179  A    between atoms: _418  and  _420
REMARK  180  A    between atoms: _420  and  _421
REMARK  181  A    between atoms: _423  and  _425
REMARK  182  A    between atoms: _425  and  _426
REMARK  183  A    between atoms: _425  and  _428
REMARK  184  A    between atoms: _428  and  _429
REMARK  185  A    between atoms: _429  and  _430
REMARK  186  A    between atoms: _433  and  _435
REMARK  187  A    between atoms: _435  and  _436
REMARK  188  A    between atoms: _435  and  _438
REMARK  189  A    between atoms: _438  and  _439
REMARK  190  A    between atoms: _442  and  _444
REMARK  191  A    between atoms: _444  and  _445
REMARK  192  A    between atoms: _444  and  _447
REMARK  193  A    between atoms: _450  and  _452
REMARK  194  A    between atoms: _452  and  _453
REMARK  195  A    between atoms: _452  and  _455
REMARK  196  A    between atoms: _455  and  _456
REMARK  197  A    between atoms: _456  and  _457
REMARK  198  A    between atoms: _460  and  _462
REMARK  199  A    between atoms: _462  and  _463
REMARK  200  A    between atoms: _462  and  _465
REMARK  201  A    between atoms: _465  and  _466
REMARK  202  A    between atoms: _471  and  _473
REMARK  203  A    between atoms: _473  and  _474
REMARK  204  A    between atoms: _473  and  _476
REMARK  205  A    between atoms: _476  and  _477
REMARK  206  A    between atoms: _480  and  _482
REMARK  207  A    between atoms: _482  and  _483
REMARK  208  A    between atoms: _482  and  _485
REMARK  209  A    between atoms: _485  and  _486
REMARK  210  A    between atoms: _489  and  _491
REMARK  211  A    between atoms: _491  and  _492
REMARK  212  A    between atoms: _491  and  _494
REMARK  213  A    between atoms: _494  and  _495
REMARK  214  A    between atoms: _498  and  _500
REMARK  215  A    between atoms: _500  and  _501
REMARK  216  A    between atoms: _500  and  _503
REMARK  217  A    between atoms: _503  and  _504
REMARK  218  A    between atoms: _504  and  _505
REMARK  219  A    between atoms: _508  and  _510
REMARK  220  A    between atoms: _510  and  _511
REMARK  221  A    between atoms: _510  and  _513
REMARK  222  A    between atoms: _513  and  _514
REMARK  223  A    between atoms: _514  and  _515
REMARK  224  A    between atoms: _515  and  _516
REMARK  225  A    between atoms: _525  and  _527
REMARK  226  A    between atoms: _527  and  _528
REMARK  227  A    between atoms: _527  and  _530
REMARK  228  A    between atoms: _530  and  _531
REMARK  229  A    between atoms: _534  and  _536
REMARK  230  A    between atoms: _536  and  _537
REMARK  231  A    between atoms: _536  and  _539
REMARK  232  A    between atoms: _539  and  _540
REMARK  233  A    between atoms: _543  and  _545
REMARK  234  A    between atoms: _545  and  _546
REMARK  235  A    between atoms: _545  and  _548
REMARK  236  A    between atoms: _548  and  _549
REMARK  237  A    between atoms: _552  and  _554
REMARK  238  A    between atoms: _554  and  _555
REMARK  239  A    between atoms: _554  and  _557
REMARK  240  A    between atoms: _557  and  _558
REMARK  241  A    between atoms: _564  and  _566
REMARK  242  A    between atoms: _566  and  _567
REMARK  243  A    between atoms: _569  and  _571
REMARK  244  A    between atoms: _571  and  _572
REMARK  245  A    between atoms: _571  and  _574
REMARK  246  A    between atoms: _574  and  _575
REMARK  247  A    between atoms: _578  and  _580
REMARK  248  A    between atoms: _580  and  _581
REMARK  249  A    between atoms: _580  and  _583
REMARK  250  A    between atoms: _583  and  _584
REMARK  251  A    between atoms: _586  and  _588
REMARK  252  A    between atoms: _588  and  _589
REMARK  253  A    between atoms: _588  and  _591
REMARK  254  A    between atoms: _591  and  _592
REMARK  255  A    between atoms: _595  and  _597
REMARK  256  A    between atoms: _597  and  _598
REMARK  257  A    between atoms: _597  and  _600
REMARK  258  A    between atoms: _600  and  _601
REMARK  259  A    between atoms: _606  and  _608
REMARK  260  A    between atoms: _608  and  _609
REMARK  261  A    between atoms: _608  and  _611
REMARK  262  A    between atoms: _611  and  _612
REMARK  263  A    between atoms: _618  and  _620
REMARK  264  A    between atoms: _620  and  _621
REMARK  265  A    between atoms: _620  and  _623
REMARK  266  A    between atoms: _623  and  _624
REMARK  267  A    between atoms: _624  and  _625
REMARK  268  A    between atoms: _625  and  _626
REMARK  269  A    between atoms: _626  and  _627
REMARK                            x       y       z     vdW  Elec       q    Type
REMARK                         _______ _______ _______ _____ _____    ______ ____
ROOT
ATOM      1  O   HOH     1       4.970  10.426  62.593  0.00  0.00    +0.000 OA
ENDROOT
TORSDOF 0
REMARK  Name = ../refined-set-2016/3v51/3v51_pocket.pdb
REMARK  269 active torsions:
REMARK  status: ('A' for Active; 'I' for Inactive)
REMARK    1  A    between atoms: _1  and  _3
REMARK    2  A    between atoms: _3  and  _4
REMARK    3  A    between atoms: _3  and  _6
REMARK    4  A    between atoms: _6  and  _7
REMARK    5  A    between atoms: _7  and  _8
REMARK    6  A    between atoms: _8  and  _9
REMARK    7  A    between atoms: _18  and  _20
REMARK    8  A    between atoms: _20  and  _21
REMARK    9  A    between atoms: _20  and  _23
REMARK   10  A    between atoms: _26  and  _28
REMARK   11  A    between atoms: _28  and  _29
REMARK   12  A    between atoms: _28  and  _31
REMARK   13  A    between atoms: _31  and  _32
REMARK   14  A    between atoms: _35  and  _37
REMARK   15  A    between atoms: _37  and  _38
REMARK   16  A    between atoms: _40  and  _42
REMARK   17  A    between atoms: _42  and  _43
REMARK   18  A    between atoms: _42  and  _45
REMARK   19  A    between atoms: _45  and  _46
REMARK   20  A    between atoms: _46  and  _47
REMARK   21  A    between atoms: _47  and  _48
REMARK   22  A    between atoms: _48  and  _49
REMARK   23  A    between atoms: _53  and  _55
REMARK   24  A    between atoms: _55  and  _56
REMARK   25  A    between atoms: _58  and  _60
REMARK   26  A    between atoms: _60  and  _61
REMARK   27  A    between atoms: _60  and  _63
REMARK   28  A    between atoms: _63  and  _64
REMARK   29  A    between atoms: _68  and  _69
REMARK   30  A    between atoms: _71  and  _73
REMARK   31  A    between atoms: _73  and  _74
REMARK   32  A    between atoms: _73  and  _76
REMARK   33  A    between atoms: _76  and  _77
REMARK   34  A    between atoms: _77  and  _78
REMARK   35  A    between atoms: _81  and  _83
REMARK   36  A    between atoms: _83  and  _84
REMARK   37  A    between atoms: _83  and  _86
REMARK   38  A    between atoms: _89  and  _91
REMARK   39  A    between atoms: _91  and  _92
REMARK   40  A    between atoms: _91  and  _94
REMARK   41  A    between atoms: _94  and  _95
REMARK   42  A    between atoms: _98  and  _100
REMARK   43  A    between atoms: _100  and  _101
REMARK   44  A    between atoms: _100  and  _103
REMARK   45  A    between atoms: _103  and  _104
REMARK   46  A    between atoms: _107  and  _109
REMARK   47  A    between atoms: _109  and  _110
REMARK   48  A    between atoms: _109  and  _112
REMARK   49  A    between atoms: _114  and  _116
REMARK   50  A    between atoms: _116  and  _117
REMARK   51  A    between atoms: _120  and  _122
REMARK   52  A    between atoms: _122  and  _123
REMARK   53  A    between atoms: _122  and  _125
REMARK   54  A    between atoms: _128  and  _130
REMARK   55  A    between atoms: _130  and  _131
REMARK   56  A    between atoms: _130  and  _133
REMARK   57  A    between atoms: _133  and  _134
REMARK   58  A    between atoms: _134  and  _135
REMARK   59  A    between atoms: _135  and  _136
REMARK   60  A    between atoms: _136  and  _137
REMARK   61  A    between atoms: _141  and  _143
REMARK   62  A    between atoms: _143  and  _144
REMARK   63  A    between atoms: _143  and  _146
REMARK   64  A    between atoms: _149  and  _151
REMARK   65  A    between atoms: _151  and  _152
REMARK   66  A    between atoms: _151  and  _154
REMARK   67  A    between atoms: _154  and  _155
REMARK   68  A    between atoms: _158  and  _160
REMARK   69  A    between atoms: _160  and  _161
REMARK   70  A    between atoms: _160  and  _163
REMARK   71  A    between atoms: _163  and  _164
REMARK   72  A    between atoms: _167  and  _169
REMARK   73  A    between atoms: _169  and  _170
REMARK   74  A    between atoms: _169  and  _172
REMARK   75  A    between atoms: _172  and  _173
REMARK   76  A    between atoms: _175  and  _177
REMARK   77  A    between atoms: _177  and  _178
REMARK   78  A    between atoms: _177  and  _180
REMARK   79  A    between atoms: _180  and  _181
REMARK   80  A    between atoms: _184  and  _186
REMARK   81  A    between atoms: _186  and  _187
REMARK   82  A    between atoms: _186  and  _189
REMARK   83  A    between atoms: _189  and  _190
REMARK   84  A    between atoms: _193  and  _195
REMARK   85  A    between atoms: _195  and  _196
REMARK   86  A    between atoms: _195  and  _198
REMARK   87  A    between atoms: _198  and  _199
REMARK   88  A    between atoms: _199  and  _200
REMARK   89  A    between atoms: _203  and  _205
REMARK   90  A    between atoms: _205  and  _206
REMARK   91  A    between atoms: _205  and  _208
REMARK   92  A    between atoms: _211  and  _213
REMARK   93  A    between atoms: _213  and  _214
REMARK   94  A    between atoms: _213  and  _216
REMARK   95  A    between atoms: _216  and  _217
REMARK   96  A    between atoms: _217  and  _218
REMARK   97  A    between atoms: _223  and  _225
REMARK   98  A    between atoms: _225  and  _226
REMARK   99  A    between atoms: _225  and  _228
REMARK  100  A    between atoms: _228  and  _229
REMARK  101  A    between atoms: _232  and  _234
REMARK  102  A    between atoms: _234  and  _235
REMARK  103  A    between atoms: _234  and  _237
REMARK  104  A    between atoms: _237  and  _238
REMARK  105  A    between atoms: _238  and  _239
REMARK  106  A    between atoms: _239  and  _240
REMARK  107  A    between atoms: _240  and  _241
REMARK  108  A    between atoms: _245  and  _247
REMARK  109  A    between atoms: _247  and  _248
REMARK  110  A    between atoms: _247  and  _250
REMARK  111  A    between atoms: _250  and  _251
REMARK  112  A    between atoms: _251  and  _252
REMARK  113  A    between atoms: _254  and  _256
REMARK  114  A    between atoms: _256  and  _257
REMARK  115  A    between atoms: _256  and  _259
REMARK  116  A    between atoms: _259  and  _260
REMARK  117  A    between atoms: _260  and  _261
REMARK  118  A    between atoms: _261  and  _262
REMARK  119  A    between atoms: _262  and  _263
REMARK  120  A    between atoms: _267  and  _269
REMARK  121  A    between atoms: _269  and  _270
REMARK  122  A    between atoms: _269  and  _272
REMARK  123  A    between atoms: _272  and  _273
REMARK  124  A    between atoms: _276  and  _278
REMARK  125  A    between atoms: _278  and  _279
REMARK  126  A    between atoms: _278  and  _281
REMARK  127  A    between atoms: _281  and  _282
REMARK  128  A    between atoms: _287  and  _288
REMARK  129  A    between atoms: _290  and  _292
REMARK  130  A    between atoms: _292  and  _293
REMARK  131  A    between atoms: _292  and  _295
REMARK  132  A    between atoms: _295  and  _296
REMARK  133  A    between atoms: _296  and  _297
REMARK  134  A    between atoms: _300  and  _302
REMARK  135  A    between atoms: _302  and  _303
REMARK  136  A    between atoms: _302  and  _305
REMARK  137  A    between atoms: _305  and  _306
REMARK  138  A    between atoms: _312  and  _314
REMARK  139  A    between atoms: _314  and  _315
REMARK  140  A    between atoms: _314  and  _317
REMARK  141  A    between atoms: _317  and  _318
REMARK  142  A    between atoms: _324  and  _326
REMARK  143  A    between atoms: _326  and  _327
REMARK  144  A    between atoms: _326  and  _329
REMARK  145  A    between atoms: _329  and  _330
REMARK  146  A    between atoms: _336  and  _338
REMARK  147  A    between atoms: _338  and  _339
REMARK  148  A    between atoms: _338  and  _341
REMARK  149  A    between atoms: _341  and  _342
REMARK  150  A    between atoms: _347  and  _348
REMARK  151  A    between atoms: _350  and  _352
REMARK  152  A    between atoms: _352  and  _353
REMARK  153  A    between atoms: _352  and  _355
REMARK  154  A    between atoms: _355  and  _356
REMARK  155  A    between atoms: _359  and  _361
REMARK  156  A    between atoms: _361  and  _362
REMARK  157  A    between atoms: _361  and  _364
REMARK  158  A    between atoms: _367  and  _369
REMARK  159  A    between atoms: _369  and  _370
REMARK  160  A    between atoms: _372  and  _374
REMARK  161  A    between atoms: _374  and  _375
REMARK  162  A    between atoms: _374  and  _377
REMARK  163  A    between atoms: _377  and  _378
REMARK  164  A    between atoms: _378  and  _379
REMARK  165  A    between atoms: _382  and  _384
REMARK  166  A    between atoms: _384  and  _385
REMARK  167  A    between atoms: _384  and  _387
REMARK  168  A    between atoms: _390  and  _392
REMARK  169  A    between atoms: _392  and  _393
REMARK  170  A    between atoms: _392  and  _395
REMARK  171  A    between atoms: _395  and  _396
REMARK  172  A    between atoms: _401  and  _402
REMARK  173  A    between atoms: _404  and  _406
REMARK  174  A    between atoms: _406  and  _407
REMARK  175  A    between atoms: _406  and  _409
REMARK  176  A    between atoms: _409  and  _410
REMARK  177  A    between atoms: _413  and  _415
REMARK  178  A    between atoms: _415  and  _416
REMARK  179  A    between atoms: _418  and  _420
REMARK  180  A    between atoms: _420  and  _421
REMARK  181  A    between atoms: _423  and  _425
REMARK  182  A    between atoms: _425  and  _426
REMARK  183  A    between atoms: _425  and  _428
REMARK  184  A    between atoms: _428  and  _429
REMARK  185  A    between atoms: _429  and  _430
REMARK  186  A    between atoms: _433  and  _435
REMARK  187  A    between atoms: _435  and  _436
REMARK  188  A    between atoms: _435  and  _438
REMARK  189  A    between atoms: _438  and  _439
REMARK  190  A    between atoms: _442  and  _444
REMARK  191  A    between atoms: _444  and  _445
REMARK  192  A    between atoms: _444  and  _447
REMARK  193  A    between atoms: _450  and  _452
REMARK  194  A    between atoms: _452  and  _453
REMARK  195  A    between atoms: _452  and  _455
REMARK  196  A    between atoms: _455  and  _456
REMARK  197  A    between atoms: _456  and  _457
REMARK  198  A    between atoms: _460  and  _462
REMARK  199  A    between atoms: _462  and  _463
REMARK  200  A    between atoms: _462  and  _465
REMARK  201  A    between atoms: _465  and  _466
REMARK  202  A    between atoms: _471  and  _473
REMARK  203  A    between atoms: _473  and  _474
REMARK  204  A    between atoms: _473  and  _476
REMARK  205  A    between atoms: _476  and  _477
REMARK  206  A    between atoms: _480  and  _482
REMARK  207  A    between atoms: _482  and  _483
REMARK  208  A    between atoms: _482  and  _485
REMARK  209  A    between atoms: _485  and  _486
REMARK  210  A    between atoms: _489  and  _491
REMARK  211  A    between atoms: _491  and  _492
REMARK  212  A    between atoms: _491  and  _494
REMARK  213  A    between atoms: _494  and  _495
REMARK  214  A    between atoms: _498  and  _500
REMARK  215  A    between atoms: _500  and  _501
REMARK  216  A    between atoms: _500  and  _503
REMARK  217  A    between atoms: _503  and  _504
REMARK  218  A    between atoms: _504  and  _505
REMARK  219  A    between atoms: _508  and  _510
REMARK  220  A    between atoms: _510  and  _511
REMARK  221  A    between atoms: _510  and  _513
REMARK  222  A    between atoms: _513  and  _514
REMARK  223  A    between atoms: _514  and  _515
REMARK  224  A    between atoms: _515  and  _516
REMARK  225  A    between atoms: _525  and  _527
REMARK  226  A    between atoms: _527  and  _528
REMARK  227  A    between atoms: _527  and  _530
REMARK  228  A    between atoms: _530  and  _531
REMARK  229  A    between atoms: _534  and  _536
REMARK  230  A    between atoms: _536  and  _537
REMARK  231  A    between atoms: _536  and  _539
REMARK  232  A    between atoms: _539  and  _540
REMARK  233  A    between atoms: _543  and  _545
REMARK  234  A    between atoms: _545  and  _546
REMARK  235  A    between atoms: _545  and  _548
REMARK  236  A    between atoms: _548  and  _549
REMARK  237  A    between atoms: _552  and  _554
REMARK  238  A    between atoms: _554  and  _555
REMARK  239  A    between atoms: _554  and  _557
REMARK  240  A    between atoms: _557  and  _558
REMARK  241  A    between atoms: _564  and  _566
REMARK  242  A    between atoms: _566  and  _567
REMARK  243  A    between atoms: _569  and  _571
REMARK  244  A    between atoms: _571  and  _572
REMARK  245  A    between atoms: _571  and  _574
REMARK  246  A    between atoms: _574  and  _575
REMARK  247  A    between atoms: _578  and  _580
REMARK  248  A    between atoms: _580  and  _581
REMARK  249  A    between atoms: _580  and  _583
REMARK  250  A    between atoms: _583  and  _584
REMARK  251  A    between atoms: _586  and  _588
REMARK  252  A    between atoms: _588  and  _589
REMARK  253  A    between atoms: _588  and  _591
REMARK  254  A    between atoms: _591  and  _592
REMARK  255  A    between atoms: _595  and  _597
REMARK  256  A    between atoms: _597  and  _598
REMARK  257  A    between atoms: _597  and  _600
REMARK  258  A    between atoms: _600  and  _601
REMARK  259  A    between atoms: _606  and  _608
REMARK  260  A    between atoms: _608  and  _609
REMARK  261  A    between atoms: _608  and  _611
REMARK  262  A    between atoms: _611  and  _612
REMARK  263  A    between atoms: _618  and  _620
REMARK  264  A    between atoms: _620  and  _621
REMARK  265  A    between atoms: _620  and  _623
REMARK  266  A    between atoms: _623  and  _624
REMARK  267  A    between atoms: _624  and  _625
REMARK  268  A    between atoms: _625  and  _626
REMARK  269  A    between atoms: _626  and  _627
REMARK                            x       y       z     vdW  Elec       q    Type
REMARK                         _______ _______ _______ _____ _____    ______ ____
ROOT
ATOM      1  O   HOH     1      13.866  18.724  62.333  0.00  0.00    +0.000 OA
ENDROOT
TORSDOF 0
REMARK  Name = ../refined-set-2016/3v51/3v51_pocket.pdb
REMARK  269 active torsions:
REMARK  status: ('A' for Active; 'I' for Inactive)
REMARK    1  A    between atoms: _1  and  _3
REMARK    2  A    between atoms: _3  and  _4
REMARK    3  A    between atoms: _3  and  _6
REMARK    4  A    between atoms: _6  and  _7
REMARK    5  A    between atoms: _7  and  _8
REMARK    6  A    between atoms: _8  and  _9
REMARK    7  A    between atoms: _18  and  _20
REMARK    8  A    between atoms: _20  and  _21
REMARK    9  A    between atoms: _20  and  _23
REMARK   10  A    between atoms: _26  and  _28
REMARK   11  A    between atoms: _28  and  _29
REMARK   12  A    between atoms: _28  and  _31
REMARK   13  A    between atoms: _31  and  _32
REMARK   14  A    between atoms: _35  and  _37
REMARK   15  A    between atoms: _37  and  _38
REMARK   16  A    between atoms: _40  and  _42
REMARK   17  A    between atoms: _42  and  _43
REMARK   18  A    between atoms: _42  and  _45
REMARK   19  A    between atoms: _45  and  _46
REMARK   20  A    between atoms: _46  and  _47
REMARK   21  A    between atoms: _47  and  _48
REMARK   22  A    between atoms: _48  and  _49
REMARK   23  A    between atoms: _53  and  _55
REMARK   24  A    between atoms: _55  and  _56
REMARK   25  A    between atoms: _58  and  _60
REMARK   26  A    between atoms: _60  and  _61
REMARK   27  A    between atoms: _60  and  _63
REMARK   28  A    between atoms: _63  and  _64
REMARK   29  A    between atoms: _68  and  _69
REMARK   30  A    between atoms: _71  and  _73
REMARK   31  A    between atoms: _73  and  _74
REMARK   32  A    between atoms: _73  and  _76
REMARK   33  A    between atoms: _76  and  _77
REMARK   34  A    between atoms: _77  and  _78
REMARK   35  A    between atoms: _81  and  _83
REMARK   36  A    between atoms: _83  and  _84
REMARK   37  A    between atoms: _83  and  _86
REMARK   38  A    between atoms: _89  and  _91
REMARK   39  A    between atoms: _91  and  _92
REMARK   40  A    between atoms: _91  and  _94
REMARK   41  A    between atoms: _94  and  _95
REMARK   42  A    between atoms: _98  and  _100
REMARK   43  A    between atoms: _100  and  _101
REMARK   44  A    between atoms: _100  and  _103
REMARK   45  A    between atoms: _103  and  _104
REMARK   46  A    between atoms: _107  and  _109
REMARK   47  A    between atoms: _109  and  _110
REMARK   48  A    between atoms: _109  and  _112
REMARK   49  A    between atoms: _114  and  _116
REMARK   50  A    between atoms: _116  and  _117
REMARK   51  A    between atoms: _120  and  _122
REMARK   52  A    between atoms: _122  and  _123
REMARK   53  A    between atoms: _122  and  _125
REMARK   54  A    between atoms: _128  and  _130
REMARK   55  A    between atoms: _130  and  _131
REMARK   56  A    between atoms: _130  and  _133
REMARK   57  A    between atoms: _133  and  _134
REMARK   58  A    between atoms: _134  and  _135
REMARK   59  A    between atoms: _135  and  _136
REMARK   60  A    between atoms: _136  and  _137
REMARK   61  A    between atoms: _141  and  _143
REMARK   62  A    between atoms: _143  and  _144
REMARK   63  A    between atoms: _143  and  _146
REMARK   64  A    between atoms: _149  and  _151
REMARK   65  A    between atoms: _151  and  _152
REMARK   66  A    between atoms: _151  and  _154
REMARK   67  A    between atoms: _154  and  _155
REMARK   68  A    between atoms: _158  and  _160
REMARK   69  A    between atoms: _160  and  _161
REMARK   70  A    between atoms: _160  and  _163
REMARK   71  A    between atoms: _163  and  _164
REMARK   72  A    between atoms: _167  and  _169
REMARK   73  A    between atoms: _169  and  _170
REMARK   74  A    between atoms: _169  and  _172
REMARK   75  A    between atoms: _172  and  _173
REMARK   76  A    between atoms: _175  and  _177
REMARK   77  A    between atoms: _177  and  _178
REMARK   78  A    between atoms: _177  and  _180
REMARK   79  A    between atoms: _180  and  _181
REMARK   80  A    between atoms: _184  and  _186
REMARK   81  A    between atoms: _186  and  _187
REMARK   82  A    between atoms: _186  and  _189
REMARK   83  A    between atoms: _189  and  _190
REMARK   84  A    between atoms: _193  and  _195
REMARK   85  A    between atoms: _195  and  _196
REMARK   86  A    between atoms: _195  and  _198
REMARK   87  A    between atoms: _198  and  _199
REMARK   88  A    between atoms: _199  and  _200
REMARK   89  A    between atoms: _203  and  _205
REMARK   90  A    between atoms: _205  and  _206
REMARK   91  A    between atoms: _205  and  _208
REMARK   92  A    between atoms: _211  and  _213
REMARK   93  A    between atoms: _213  and  _214
REMARK   94  A    between atoms: _213  and  _216
REMARK   95  A    between atoms: _216  and  _217
REMARK   96  A    between atoms: _217  and  _218
REMARK   97  A    between atoms: _223  and  _225
REMARK   98  A    between atoms: _225  and  _226
REMARK   99  A    between atoms: _225  and  _228
REMARK  100  A    between atoms: _228  and  _229
REMARK  101  A    between atoms: _232  and  _234
REMARK  102  A    between atoms: _234  and  _235
REMARK  103  A    between atoms: _234  and  _237
REMARK  104  A    between atoms: _237  and  _238
REMARK  105  A    between atoms: _238  and  _239
REMARK  106  A    between atoms: _239  and  _240
REMARK  107  A    between atoms: _240  and  _241
REMARK  108  A    between atoms: _245  and  _247
REMARK  109  A    between atoms: _247  and  _248
REMARK  110  A    between atoms: _247  and  _250
REMARK  111  A    between atoms: _250  and  _251
REMARK  112  A    between atoms: _251  and  _252
REMARK  113  A    between atoms: _254  and  _256
REMARK  114  A    between atoms: _256  and  _257
REMARK  115  A    between atoms: _256  and  _259
REMARK  116  A    between atoms: _259  and  _260
REMARK  117  A    between atoms: _260  and  _261
REMARK  118  A    between atoms: _261  and  _262
REMARK  119  A    between atoms: _262  and  _263
REMARK  120  A    between atoms: _267  and  _269
REMARK  121  A    between atoms: _269  and  _270
REMARK  122  A    between atoms: _269  and  _272
REMARK  123  A    between atoms: _272  and  _273
REMARK  124  A    between atoms: _276  and  _278
REMARK  125  A    between atoms: _278  and  _279
REMARK  126  A    between atoms: _278  and  _281
REMARK  127  A    between atoms: _281  and  _282
REMARK  128  A    between atoms: _287  and  _288
REMARK  129  A    between atoms: _290  and  _292
REMARK  130  A    between atoms: _292  and  _293
REMARK  131  A    between atoms: _292  and  _295
REMARK  132  A    between atoms: _295  and  _296
REMARK  133  A    between atoms: _296  and  _297
REMARK  134  A    between atoms: _300  and  _302
REMARK  135  A    between atoms: _302  and  _303
REMARK  136  A    between atoms: _302  and  _305
REMARK  137  A    between atoms: _305  and  _306
REMARK  138  A    between atoms: _312  and  _314
REMARK  139  A    between atoms: _314  and  _315
REMARK  140  A    between atoms: _314  and  _317
REMARK  141  A    between atoms: _317  and  _318
REMARK  142  A    between atoms: _324  and  _326
REMARK  143  A    between atoms: _326  and  _327
REMARK  144  A    between atoms: _326  and  _329
REMARK  145  A    between atoms: _329  and  _330
REMARK  146  A    between atoms: _336  and  _338
REMARK  147  A    between atoms: _338  and  _339
REMARK  148  A    between atoms: _338  and  _341
REMARK  149  A    between atoms: _341  and  _342
REMARK  150  A    between atoms: _347  and  _348
REMARK  151  A    between atoms: _350  and  _352
REMARK  152  A    between atoms: _352  and  _353
REMARK  153  A    between atoms: _352  and  _355
REMARK  154  A    between atoms: _355  and  _356
REMARK  155  A    between atoms: _359  and  _361
REMARK  156  A    between atoms: _361  and  _362
REMARK  157  A    between atoms: _361  and  _364
REMARK  158  A    between atoms: _367  and  _369
REMARK  159  A    between atoms: _369  and  _370
REMARK  160  A    between atoms: _372  and  _374
REMARK  161  A    between atoms: _374  and  _375
REMARK  162  A    between atoms: _374  and  _377
REMARK  163  A    between atoms: _377  and  _378
REMARK  164  A    between atoms: _378  and  _379
REMARK  165  A    between atoms: _382  and  _384
REMARK  166  A    between atoms: _384  and  _385
REMARK  167  A    between atoms: _384  and  _387
REMARK  168  A    between atoms: _390  and  _392
REMARK  169  A    between atoms: _392  and  _393
REMARK  170  A    between atoms: _392  and  _395
REMARK  171  A    between atoms: _395  and  _396
REMARK  172  A    between atoms: _401  and  _402
REMARK  173  A    between atoms: _404  and  _406
REMARK  174  A    between atoms: _406  and  _407
REMARK  175  A    between atoms: _406  and  _409
REMARK  176  A    between atoms: _409  and  _410
REMARK  177  A    between atoms: _413  and  _415
REMARK  178  A    between atoms: _415  and  _416
REMARK  179  A    between atoms: _418  and  _420
REMARK  180  A    between atoms: _420  and  _421
REMARK  181  A    between atoms: _423  and  _425
REMARK  182  A    between atoms: _425  and  _426
REMARK  183  A    between atoms: _425  and  _428
REMARK  184  A    between atoms: _428  and  _429
REMARK  185  A    between atoms: _429  and  _430
REMARK  186  A    between atoms: _433  and  _435
REMARK  187  A    between atoms: _435  and  _436
REMARK  188  A    between atoms: _435  and  _438
REMARK  189  A    between atoms: _438  and  _439
REMARK  190  A    between atoms: _442  and  _444
REMARK  191  A    between atoms: _444  and  _445
REMARK  192  A    between atoms: _444  and  _447
REMARK  193  A    between atoms: _450  and  _452
REMARK  194  A    between atoms: _452  and  _453
REMARK  195  A    between atoms: _452  and  _455
REMARK  196  A    between atoms: _455  and  _456
REMARK  197  A    between atoms: _456  and  _457
REMARK  198  A    between atoms: _460  and  _462
REMARK  199  A    between atoms: _462  and  _463
REMARK  200  A    between atoms: _462  and  _465
REMARK  201  A    between atoms: _465  and  _466
REMARK  202  A    between atoms: _471  and  _473
REMARK  203  A    between atoms: _473  and  _474
REMARK  204  A    between atoms: _473  and  _476
REMARK  205  A    between atoms: _476  and  _477
REMARK  206  A    between atoms: _480  and  _482
REMARK  207  A    between atoms: _482  and  _483
REMARK  208  A    between atoms: _482  and  _485
REMARK  209  A    between atoms: _485  and  _486
REMARK  210  A    between atoms: _489  and  _491
REMARK  211  A    between atoms: _491  and  _492
REMARK  212  A    between atoms: _491  and  _494
REMARK  213  A    between atoms: _494  and  _495
REMARK  214  A    between atoms: _498  and  _500
REMARK  215  A    between atoms: _500  and  _501
REMARK  216  A    between atoms: _500  and  _503
REMARK  217  A    between atoms: _503  and  _504
REMARK  218  A    between atoms: _504  and  _505
REMARK  219  A    between atoms: _508  and  _510
REMARK  220  A    between atoms: _510  and  _511
REMARK  221  A    between atoms: _510  and  _513
REMARK  222  A    between atoms: _513  and  _514
REMARK  223  A    between atoms: _514  and  _515
REMARK  224  A    between atoms: _515  and  _516
REMARK  225  A    between atoms: _525  and  _527
REMARK  226  A    between atoms: _527  and  _528
REMARK  227  A    between atoms: _527  and  _530
REMARK  228  A    between atoms: _530  and  _531
REMARK  229  A    between atoms: _534  and  _536
REMARK  230  A    between atoms: _536  and  _537
REMARK  231  A    between atoms: _536  and  _539
REMARK  232  A    between atoms: _539  and  _540
REMARK  233  A    between atoms: _543  and  _545
REMARK  234  A    between atoms: _545  and  _546
REMARK  235  A    between atoms: _545  and  _548
REMARK  236  A    between atoms: _548  and  _549
REMARK  237  A    between atoms: _552  and  _554
REMARK  238  A    between atoms: _554  and  _555
REMARK  239  A    between atoms: _554  and  _557
REMARK  240  A    between atoms: _557  and  _558
REMARK  241  A    between atoms: _564  and  _566
REMARK  242  A    between atoms: _566  and  _567
REMARK  243  A    between atoms: _569  and  _571
REMARK  244  A    between atoms: _571  and  _572
REMARK  245  A    between atoms: _571  and  _574
REMARK  246  A    between atoms: _574  and  _575
REMARK  247  A    between atoms: _578  and  _580
REMARK  248  A    between atoms: _580  and  _581
REMARK  249  A    between atoms: _580  and  _583
REMARK  250  A    between atoms: _583  and  _584
REMARK  251  A    between atoms: _586  and  _588
REMARK  252  A    between atoms: _588  and  _589
REMARK  253  A    between atoms: _588  and  _591
REMARK  254  A    between atoms: _591  and  _592
REMARK  255  A    between atoms: _595  and  _597
REMARK  256  A    between atoms: _597  and  _598
REMARK  257  A    between atoms: _597  and  _600
REMARK  258  A    between atoms: _600  and  _601
REMARK  259  A    between atoms: _606  and  _608
REMARK  260  A    between atoms: _608  and  _609
REMARK  261  A    between atoms: _608  and  _611
REMARK  262  A    between atoms: _611  and  _612
REMARK  263  A    between atoms: _618  and  _620
REMARK  264  A    between atoms: _620  and  _621
REMARK  265  A    between atoms: _620  and  _623
REMARK  266  A    between atoms: _623  and  _624
REMARK  267  A    between atoms: _624  and  _625
REMARK  268  A    between atoms: _625  and  _626
REMARK  269  A    between atoms: _626  and  _627
REMARK                            x       y       z     vdW  Elec       q    Type
REMARK                         _______ _______ _______ _____ _____    ______ ____
ROOT
ATOM      1  O   HOH     1       8.799  21.357  58.773  0.00  0.00    +0.000 OA
ENDROOT
TORSDOF 0
REMARK  Name = ../refined-set-2016/3v51/3v51_pocket.pdb
REMARK  269 active torsions:
REMARK  status: ('A' for Active; 'I' for Inactive)
REMARK    1  A    between atoms: _1  and  _3
REMARK    2  A    between atoms: _3  and  _4
REMARK    3  A    between atoms: _3  and  _6
REMARK    4  A    between atoms: _6  and  _7
REMARK    5  A    between atoms: _7  and  _8
REMARK    6  A    between atoms: _8  and  _9
REMARK    7  A    between atoms: _18  and  _20
REMARK    8  A    between atoms: _20  and  _21
REMARK    9  A    between atoms: _20  and  _23
REMARK   10  A    between atoms: _26  and  _28
REMARK   11  A    between atoms: _28  and  _29
REMARK   12  A    between atoms: _28  and  _31
REMARK   13  A    between atoms: _31  and  _32
REMARK   14  A    between atoms: _35  and  _37
REMARK   15  A    between atoms: _37  and  _38
REMARK   16  A    between atoms: _40  and  _42
REMARK   17  A    between atoms: _42  and  _43
REMARK   18  A    between atoms: _42  and  _45
REMARK   19  A    between atoms: _45  and  _46
REMARK   20  A    between atoms: _46  and  _47
REMARK   21  A    between atoms: _47  and  _48
REMARK   22  A    between atoms: _48  and  _49
REMARK   23  A    between atoms: _53  and  _55
REMARK   24  A    between atoms: _55  and  _56
REMARK   25  A    between atoms: _58  and  _60
REMARK   26  A    between atoms: _60  and  _61
REMARK   27  A    between atoms: _60  and  _63
REMARK   28  A    between atoms: _63  and  _64
REMARK   29  A    between atoms: _68  and  _69
REMARK   30  A    between atoms: _71  and  _73
REMARK   31  A    between atoms: _73  and  _74
REMARK   32  A    between atoms: _73  and  _76
REMARK   33  A    between atoms: _76  and  _77
REMARK   34  A    between atoms: _77  and  _78
REMARK   35  A    between atoms: _81  and  _83
REMARK   36  A    between atoms: _83  and  _84
REMARK   37  A    between atoms: _83  and  _86
REMARK   38  A    between atoms: _89  and  _91
REMARK   39  A    between atoms: _91  and  _92
REMARK   40  A    between atoms: _91  and  _94
REMARK   41  A    between atoms: _94  and  _95
REMARK   42  A    between atoms: _98  and  _100
REMARK   43  A    between atoms: _100  and  _101
REMARK   44  A    between atoms: _100  and  _103
REMARK   45  A    between atoms: _103  and  _104
REMARK   46  A    between atoms: _107  and  _109
REMARK   47  A    between atoms: _109  and  _110
REMARK   48  A    between atoms: _109  and  _112
REMARK   49  A    between atoms: _114  and  _116
REMARK   50  A    between atoms: _116  and  _117
REMARK   51  A    between atoms: _120  and  _122
REMARK   52  A    between atoms: _122  and  _123
REMARK   53  A    between atoms: _122  and  _125
REMARK   54  A    between atoms: _128  and  _130
REMARK   55  A    between atoms: _130  and  _131
REMARK   56  A    between atoms: _130  and  _133
REMARK   57  A    between atoms: _133  and  _134
REMARK   58  A    between atoms: _134  and  _135
REMARK   59  A    between atoms: _135  and  _136
REMARK   60  A    between atoms: _136  and  _137
REMARK   61  A    between atoms: _141  and  _143
REMARK   62  A    between atoms: _143  and  _144
REMARK   63  A    between atoms: _143  and  _146
REMARK   64  A    between atoms: _149  and  _151
REMARK   65  A    between atoms: _151  and  _152
REMARK   66  A    between atoms: _151  and  _154
REMARK   67  A    between atoms: _154  and  _155
REMARK   68  A    between atoms: _158  and  _160
REMARK   69  A    between atoms: _160  and  _161
REMARK   70  A    between atoms: _160  and  _163
REMARK   71  A    between atoms: _163  and  _164
REMARK   72  A    between atoms: _167  and  _169
REMARK   73  A    between atoms: _169  and  _170
REMARK   74  A    between atoms: _169  and  _172
REMARK   75  A    between atoms: _172  and  _173
REMARK   76  A    between atoms: _175  and  _177
REMARK   77  A    between atoms: _177  and  _178
REMARK   78  A    between atoms: _177  and  _180
REMARK   79  A    between atoms: _180  and  _181
REMARK   80  A    between atoms: _184  and  _186
REMARK   81  A    between atoms: _186  and  _187
REMARK   82  A    between atoms: _186  and  _189
REMARK   83  A    between atoms: _189  and  _190
REMARK   84  A    between atoms: _193  and  _195
REMARK   85  A    between atoms: _195  and  _196
REMARK   86  A    between atoms: _195  and  _198
REMARK   87  A    between atoms: _198  and  _199
REMARK   88  A    between atoms: _199  and  _200
REMARK   89  A    between atoms: _203  and  _205
REMARK   90  A    between atoms: _205  and  _206
REMARK   91  A    between atoms: _205  and  _208
REMARK   92  A    between atoms: _211  and  _213
REMARK   93  A    between atoms: _213  and  _214
REMARK   94  A    between atoms: _213  and  _216
REMARK   95  A    between atoms: _216  and  _217
REMARK   96  A    between atoms: _217  and  _218
REMARK   97  A    between atoms: _223  and  _225
REMARK   98  A    between atoms: _225  and  _226
REMARK   99  A    between atoms: _225  and  _228
REMARK  100  A    between atoms: _228  and  _229
REMARK  101  A    between atoms: _232  and  _234
REMARK  102  A    between atoms: _234  and  _235
REMARK  103  A    between atoms: _234  and  _237
REMARK  104  A    between atoms: _237  and  _238
REMARK  105  A    between atoms: _238  and  _239
REMARK  106  A    between atoms: _239  and  _240
REMARK  107  A    between atoms: _240  and  _241
REMARK  108  A    between atoms: _245  and  _247
REMARK  109  A    between atoms: _247  and  _248
REMARK  110  A    between atoms: _247  and  _250
REMARK  111  A    between atoms: _250  and  _251
REMARK  112  A    between atoms: _251  and  _252
REMARK  113  A    between atoms: _254  and  _256
REMARK  114  A    between atoms: _256  and  _257
REMARK  115  A    between atoms: _256  and  _259
REMARK  116  A    between atoms: _259  and  _260
REMARK  117  A    between atoms: _260  and  _261
REMARK  118  A    between atoms: _261  and  _262
REMARK  119  A    between atoms: _262  and  _263
REMARK  120  A    between atoms: _267  and  _269
REMARK  121  A    between atoms: _269  and  _270
REMARK  122  A    between atoms: _269  and  _272
REMARK  123  A    between atoms: _272  and  _273
REMARK  124  A    between atoms: _276  and  _278
REMARK  125  A    between atoms: _278  and  _279
REMARK  126  A    between atoms: _278  and  _281
REMARK  127  A    between atoms: _281  and  _282
REMARK  128  A    between atoms: _287  and  _288
REMARK  129  A    between atoms: _290  and  _292
REMARK  130  A    between atoms: _292  and  _293
REMARK  131  A    between atoms: _292  and  _295
REMARK  132  A    between atoms: _295  and  _296
REMARK  133  A    between atoms: _296  and  _297
REMARK  134  A    between atoms: _300  and  _302
REMARK  135  A    between atoms: _302  and  _303
REMARK  136  A    between atoms: _302  and  _305
REMARK  137  A    between atoms: _305  and  _306
REMARK  138  A    between atoms: _312  and  _314
REMARK  139  A    between atoms: _314  and  _315
REMARK  140  A    between atoms: _314  and  _317
REMARK  141  A    between atoms: _317  and  _318
REMARK  142  A    between atoms: _324  and  _326
REMARK  143  A    between atoms: _326  and  _327
REMARK  144  A    between atoms: _326  and  _329
REMARK  145  A    between atoms: _329  and  _330
REMARK  146  A    between atoms: _336  and  _338
REMARK  147  A    between atoms: _338  and  _339
REMARK  148  A    between atoms: _338  and  _341
REMARK  149  A    between atoms: _341  and  _342
REMARK  150  A    between atoms: _347  and  _348
REMARK  151  A    between atoms: _350  and  _352
REMARK  152  A    between atoms: _352  and  _353
REMARK  153  A    between atoms: _352  and  _355
REMARK  154  A    between atoms: _355  and  _356
REMARK  155  A    between atoms: _359  and  _361
REMARK  156  A    between atoms: _361  and  _362
REMARK  157  A    between atoms: _361  and  _364
REMARK  158  A    between atoms: _367  and  _369
REMARK  159  A    between atoms: _369  and  _370
REMARK  160  A    between atoms: _372  and  _374
REMARK  161  A    between atoms: _374  and  _375
REMARK  162  A    between atoms: _374  and  _377
REMARK  163  A    between atoms: _377  and  _378
REMARK  164  A    between atoms: _378  and  _379
REMARK  165  A    between atoms: _382  and  _384
REMARK  166  A    between atoms: _384  and  _385
REMARK  167  A    between atoms: _384  and  _387
REMARK  168  A    between atoms: _390  and  _392
REMARK  169  A    between atoms: _392  and  _393
REMARK  170  A    between atoms: _392  and  _395
REMARK  171  A    between atoms: _395  and  _396
REMARK  172  A    between atoms: _401  and  _402
REMARK  173  A    between atoms: _404  and  _406
REMARK  174  A    between atoms: _406  and  _407
REMARK  175  A    between atoms: _406  and  _409
REMARK  176  A    between atoms: _409  and  _410
REMARK  177  A    between atoms: _413  and  _415
REMARK  178  A    between atoms: _415  and  _416
REMARK  179  A    between atoms: _418  and  _420
REMARK  180  A    between atoms: _420  and  _421
REMARK  181  A    between atoms: _423  and  _425
REMARK  182  A    between atoms: _425  and  _426
REMARK  183  A    between atoms: _425  and  _428
REMARK  184  A    between atoms: _428  and  _429
REMARK  185  A    between atoms: _429  and  _430
REMARK  186  A    between atoms: _433  and  _435
REMARK  187  A    between atoms: _435  and  _436
REMARK  188  A    between atoms: _435  and  _438
REMARK  189  A    between atoms: _438  and  _439
REMARK  190  A    between atoms: _442  and  _444
REMARK  191  A    between atoms: _444  and  _445
REMARK  192  A    between atoms: _444  and  _447
REMARK  193  A    between atoms: _450  and  _452
REMARK  194  A    between atoms: _452  and  _453
REMARK  195  A    between atoms: _452  and  _455
REMARK  196  A    between atoms: _455  and  _456
REMARK  197  A    between atoms: _456  and  _457
REMARK  198  A    between atoms: _460  and  _462
REMARK  199  A    between atoms: _462  and  _463
REMARK  200  A    between atoms: _462  and  _465
REMARK  201  A    between atoms: _465  and  _466
REMARK  202  A    between atoms: _471  and  _473
REMARK  203  A    between atoms: _473  and  _474
REMARK  204  A    between atoms: _473  and  _476
REMARK  205  A    between atoms: _476  and  _477
REMARK  206  A    between atoms: _480  and  _482
REMARK  207  A    between atoms: _482  and  _483
REMARK  208  A    between atoms: _482  and  _485
REMARK  209  A    between atoms: _485  and  _486
REMARK  210  A    between atoms: _489  and  _491
REMARK  211  A    between atoms: _491  and  _492
REMARK  212  A    between atoms: _491  and  _494
REMARK  213  A    between atoms: _494  and  _495
REMARK  214  A    between atoms: _498  and  _500
REMARK  215  A    between atoms: _500  and  _501
REMARK  216  A    between atoms: _500  and  _503
REMARK  217  A    between atoms: _503  and  _504
REMARK  218  A    between atoms: _504  and  _505
REMARK  219  A    between atoms: _508  and  _510
REMARK  220  A    between atoms: _510  and  _511
REMARK  221  A    between atoms: _510  and  _513
REMARK  222  A    between atoms: _513  and  _514
REMARK  223  A    between atoms: _514  and  _515
REMARK  224  A    between atoms: _515  and  _516
REMARK  225  A    between atoms: _525  and  _527
REMARK  226  A    between atoms: _527  and  _528
REMARK  227  A    between atoms: _527  and  _530
REMARK  228  A    between atoms: _530  and  _531
REMARK  229  A    between atoms: _534  and  _536
REMARK  230  A    between atoms: _536  and  _537
REMARK  231  A    between atoms: _536  and  _539
REMARK  232  A    between atoms: _539  and  _540
REMARK  233  A    between atoms: _543  and  _545
REMARK  234  A    between atoms: _545  and  _546
REMARK  235  A    between atoms: _545  and  _548
REMARK  236  A    between atoms: _548  and  _549
REMARK  237  A    between atoms: _552  and  _554
REMARK  238  A    between atoms: _554  and  _555
REMARK  239  A    between atoms: _554  and  _557
REMARK  240  A    between atoms: _557  and  _558
REMARK  241  A    between atoms: _564  and  _566
REMARK  242  A    between atoms: _566  and  _567
REMARK  243  A    between atoms: _569  and  _571
REMARK  244  A    between atoms: _571  and  _572
REMARK  245  A    between atoms: _571  and  _574
REMARK  246  A    between atoms: _574  and  _575
REMARK  247  A    between atoms: _578  and  _580
REMARK  248  A    between atoms: _580  and  _581
REMARK  249  A    between atoms: _580  and  _583
REMARK  250  A    between atoms: _583  and  _584
REMARK  251  A    between atoms: _586  and  _588
REMARK  252  A    between atoms: _588  and  _589
REMARK  253  A    between atoms: _588  and  _591
REMARK  254  A    between atoms: _591  and  _592
REMARK  255  A    between atoms: _595  and  _597
REMARK  256  A    between atoms: _597  and  _598
REMARK  257  A    between atoms: _597  and  _600
REMARK  258  A    between atoms: _600  and  _601
REMARK  259  A    between atoms: _606  and  _608
REMARK  260  A    between atoms: _608  and  _609
REMARK  261  A    between atoms: _608  and  _611
REMARK  262  A    between atoms: _611  and  _612
REMARK  263  A    between atoms: _618  and  _620
REMARK  264  A    between atoms: _620  and  _621
REMARK  265  A    between atoms: _620  and  _623
REMARK  266  A    between atoms: _623  and  _624
REMARK  267  A    between atoms: _624  and  _625
REMARK  268  A    between atoms: _625  and  _626
REMARK  269  A    between atoms: _626  and  _627
REMARK                            x       y       z     vdW  Elec       q    Type
REMARK                         _______ _______ _______ _____ _____    ______ ____
ROOT
ATOM      1  O   HOH     1       3.027   8.378  62.199  0.00  0.00    +0.000 OA
ENDROOT
TORSDOF 0
REMARK  Name = ../refined-set-2016/3v51/3v51_pocket.pdb
REMARK  269 active torsions:
REMARK  status: ('A' for Active; 'I' for Inactive)
REMARK    1  A    between atoms: _1  and  _3
REMARK    2  A    between atoms: _3  and  _4
REMARK    3  A    between atoms: _3  and  _6
REMARK    4  A    between atoms: _6  and  _7
REMARK    5  A    between atoms: _7  and  _8
REMARK    6  A    between atoms: _8  and  _9
REMARK    7  A    between atoms: _18  and  _20
REMARK    8  A    between atoms: _20  and  _21
REMARK    9  A    between atoms: _20  and  _23
REMARK   10  A    between atoms: _26  and  _28
REMARK   11  A    between atoms: _28  and  _29
REMARK   12  A    between atoms: _28  and  _31
REMARK   13  A    between atoms: _31  and  _32
REMARK   14  A    between atoms: _35  and  _37
REMARK   15  A    between atoms: _37  and  _38
REMARK   16  A    between atoms: _40  and  _42
REMARK   17  A    between atoms: _42  and  _43
REMARK   18  A    between atoms: _42  and  _45
REMARK   19  A    between atoms: _45  and  _46
REMARK   20  A    between atoms: _46  and  _47
REMARK   21  A    between atoms: _47  and  _48
REMARK   22  A    between atoms: _48  and  _49
REMARK   23  A    between atoms: _53  and  _55
REMARK   24  A    between atoms: _55  and  _56
REMARK   25  A    between atoms: _58  and  _60
REMARK   26  A    between atoms: _60  and  _61
REMARK   27  A    between atoms: _60  and  _63
REMARK   28  A    between atoms: _63  and  _64
REMARK   29  A    between atoms: _68  and  _69
REMARK   30  A    between atoms: _71  and  _73
REMARK   31  A    between atoms: _73  and  _74
REMARK   32  A    between atoms: _73  and  _76
REMARK   33  A    between atoms: _76  and  _77
REMARK   34  A    between atoms: _77  and  _78
REMARK   35  A    between atoms: _81  and  _83
REMARK   36  A    between atoms: _83  and  _84
REMARK   37  A    between atoms: _83  and  _86
REMARK   38  A    between atoms: _89  and  _91
REMARK   39  A    between atoms: _91  and  _92
REMARK   40  A    between atoms: _91  and  _94
REMARK   41  A    between atoms: _94  and  _95
REMARK   42  A    between atoms: _98  and  _100
REMARK   43  A    between atoms: _100  and  _101
REMARK   44  A    between atoms: _100  and  _103
REMARK   45  A    between atoms: _103  and  _104
REMARK   46  A    between atoms: _107  and  _109
REMARK   47  A    between atoms: _109  and  _110
REMARK   48  A    between atoms: _109  and  _112
REMARK   49  A    between atoms: _114  and  _116
REMARK   50  A    between atoms: _116  and  _117
REMARK   51  A    between atoms: _120  and  _122
REMARK   52  A    between atoms: _122  and  _123
REMARK   53  A    between atoms: _122  and  _125
REMARK   54  A    between atoms: _128  and  _130
REMARK   55  A    between atoms: _130  and  _131
REMARK   56  A    between atoms: _130  and  _133
REMARK   57  A    between atoms: _133  and  _134
REMARK   58  A    between atoms: _134  and  _135
REMARK   59  A    between atoms: _135  and  _136
REMARK   60  A    between atoms: _136  and  _137
REMARK   61  A    between atoms: _141  and  _143
REMARK   62  A    between atoms: _143  and  _144
REMARK   63  A    between atoms: _143  and  _146
REMARK   64  A    between atoms: _149  and  _151
REMARK   65  A    between atoms: _151  and  _152
REMARK   66  A    between atoms: _151  and  _154
REMARK   67  A    between atoms: _154  and  _155
REMARK   68  A    between atoms: _158  and  _160
REMARK   69  A    between atoms: _160  and  _161
REMARK   70  A    between atoms: _160  and  _163
REMARK   71  A    between atoms: _163  and  _164
REMARK   72  A    between atoms: _167  and  _169
REMARK   73  A    between atoms: _169  and  _170
REMARK   74  A    between atoms: _169  and  _172
REMARK   75  A    between atoms: _172  and  _173
REMARK   76  A    between atoms: _175  and  _177
REMARK   77  A    between atoms: _177  and  _178
REMARK   78  A    between atoms: _177  and  _180
REMARK   79  A    between atoms: _180  and  _181
REMARK   80  A    between atoms: _184  and  _186
REMARK   81  A    between atoms: _186  and  _187
REMARK   82  A    between atoms: _186  and  _189
REMARK   83  A    between atoms: _189  and  _190
REMARK   84  A    between atoms: _193  and  _195
REMARK   85  A    between atoms: _195  and  _196
REMARK   86  A    between atoms: _195  and  _198
REMARK   87  A    between atoms: _198  and  _199
REMARK   88  A    between atoms: _199  and  _200
REMARK   89  A    between atoms: _203  and  _205
REMARK   90  A    between atoms: _205  and  _206
REMARK   91  A    between atoms: _205  and  _208
REMARK   92  A    between atoms: _211  and  _213
REMARK   93  A    between atoms: _213  and  _214
REMARK   94  A    between atoms: _213  and  _216
REMARK   95  A    between atoms: _216  and  _217
REMARK   96  A    between atoms: _217  and  _218
REMARK   97  A    between atoms: _223  and  _225
REMARK   98  A    between atoms: _225  and  _226
REMARK   99  A    between atoms: _225  and  _228
REMARK  100  A    between atoms: _228  and  _229
REMARK  101  A    between atoms: _232  and  _234
REMARK  102  A    between atoms: _234  and  _235
REMARK  103  A    between atoms: _234  and  _237
REMARK  104  A    between atoms: _237  and  _238
REMARK  105  A    between atoms: _238  and  _239
REMARK  106  A    between atoms: _239  and  _240
REMARK  107  A    between atoms: _240  and  _241
REMARK  108  A    between atoms: _245  and  _247
REMARK  109  A    between atoms: _247  and  _248
REMARK  110  A    between atoms: _247  and  _250
REMARK  111  A    between atoms: _250  and  _251
REMARK  112  A    between atoms: _251  and  _252
REMARK  113  A    between atoms: _254  and  _256
REMARK  114  A    between atoms: _256  and  _257
REMARK  115  A    between atoms: _256  and  _259
REMARK  116  A    between atoms: _259  and  _260
REMARK  117  A    between atoms: _260  and  _261
REMARK  118  A    between atoms: _261  and  _262
REMARK  119  A    between atoms: _262  and  _263
REMARK  120  A    between atoms: _267  and  _269
REMARK  121  A    between atoms: _269  and  _270
REMARK  122  A    between atoms: _269  and  _272
REMARK  123  A    between atoms: _272  and  _273
REMARK  124  A    between atoms: _276  and  _278
REMARK  125  A    between atoms: _278  and  _279
REMARK  126  A    between atoms: _278  and  _281
REMARK  127  A    between atoms: _281  and  _282
REMARK  128  A    between atoms: _287  and  _288
REMARK  129  A    between atoms: _290  and  _292
REMARK  130  A    between atoms: _292  and  _293
REMARK  131  A    between atoms: _292  and  _295
REMARK  132  A    between atoms: _295  and  _296
REMARK  133  A    between atoms: _296  and  _297
REMARK  134  A    between atoms: _300  and  _302
REMARK  135  A    between atoms: _302  and  _303
REMARK  136  A    between atoms: _302  and  _305
REMARK  137  A    between atoms: _305  and  _306
REMARK  138  A    between atoms: _312  and  _314
REMARK  139  A    between atoms: _314  and  _315
REMARK  140  A    between atoms: _314  and  _317
REMARK  141  A    between atoms: _317  and  _318
REMARK  142  A    between atoms: _324  and  _326
REMARK  143  A    between atoms: _326  and  _327
REMARK  144  A    between atoms: _326  and  _329
REMARK  145  A    between atoms: _329  and  _330
REMARK  146  A    between atoms: _336  and  _338
REMARK  147  A    between atoms: _338  and  _339
REMARK  148  A    between atoms: _338  and  _341
REMARK  149  A    between atoms: _341  and  _342
REMARK  150  A    between atoms: _347  and  _348
REMARK  151  A    between atoms: _350  and  _352
REMARK  152  A    between atoms: _352  and  _353
REMARK  153  A    between atoms: _352  and  _355
REMARK  154  A    between atoms: _355  and  _356
REMARK  155  A    between atoms: _359  and  _361
REMARK  156  A    between atoms: _361  and  _362
REMARK  157  A    between atoms: _361  and  _364
REMARK  158  A    between atoms: _367  and  _369
REMARK  159  A    between atoms: _369  and  _370
REMARK  160  A    between atoms: _372  and  _374
REMARK  161  A    between atoms: _374  and  _375
REMARK  162  A    between atoms: _374  and  _377
REMARK  163  A    between atoms: _377  and  _378
REMARK  164  A    between atoms: _378  and  _379
REMARK  165  A    between atoms: _382  and  _384
REMARK  166  A    between atoms: _384  and  _385
REMARK  167  A    between atoms: _384  and  _387
REMARK  168  A    between atoms: _390  and  _392
REMARK  169  A    between atoms: _392  and  _393
REMARK  170  A    between atoms: _392  and  _395
REMARK  171  A    between atoms: _395  and  _396
REMARK  172  A    between atoms: _401  and  _402
REMARK  173  A    between atoms: _404  and  _406
REMARK  174  A    between atoms: _406  and  _407
REMARK  175  A    between atoms: _406  and  _409
REMARK  176  A    between atoms: _409  and  _410
REMARK  177  A    between atoms: _413  and  _415
REMARK  178  A    between atoms: _415  and  _416
REMARK  179  A    between atoms: _418  and  _420
REMARK  180  A    between atoms: _420  and  _421
REMARK  181  A    between atoms: _423  and  _425
REMARK  182  A    between atoms: _425  and  _426
REMARK  183  A    between atoms: _425  and  _428
REMARK  184  A    between atoms: _428  and  _429
REMARK  185  A    between atoms: _429  and  _430
REMARK  186  A    between atoms: _433  and  _435
REMARK  187  A    between atoms: _435  and  _436
REMARK  188  A    between atoms: _435  and  _438
REMARK  189  A    between atoms: _438  and  _439
REMARK  190  A    between atoms: _442  and  _444
REMARK  191  A    between atoms: _444  and  _445
REMARK  192  A    between atoms: _444  and  _447
REMARK  193  A    between atoms: _450  and  _452
REMARK  194  A    between atoms: _452  and  _453
REMARK  195  A    between atoms: _452  and  _455
REMARK  196  A    between atoms: _455  and  _456
REMARK  197  A    between atoms: _456  and  _457
REMARK  198  A    between atoms: _460  and  _462
REMARK  199  A    between atoms: _462  and  _463
REMARK  200  A    between atoms: _462  and  _465
REMARK  201  A    between atoms: _465  and  _466
REMARK  202  A    between atoms: _471  and  _473
REMARK  203  A    between atoms: _473  and  _474
REMARK  204  A    between atoms: _473  and  _476
REMARK  205  A    between atoms: _476  and  _477
REMARK  206  A    between atoms: _480  and  _482
REMARK  207  A    between atoms: _482  and  _483
REMARK  208  A    between atoms: _482  and  _485
REMARK  209  A    between atoms: _485  and  _486
REMARK  210  A    between atoms: _489  and  _491
REMARK  211  A    between atoms: _491  and  _492
REMARK  212  A    between atoms: _491  and  _494
REMARK  213  A    between atoms: _494  and  _495
REMARK  214  A    between atoms: _498  and  _500
REMARK  215  A    between atoms: _500  and  _501
REMARK  216  A    between atoms: _500  and  _503
REMARK  217  A    between atoms: _503  and  _504
REMARK  218  A    between atoms: _504  and  _505
REMARK  219  A    between atoms: _508  and  _510
REMARK  220  A    between atoms: _510  and  _511
REMARK  221  A    between atoms: _510  and  _513
REMARK  222  A    between atoms: _513  and  _514
REMARK  223  A    between atoms: _514  and  _515
REMARK  224  A    between atoms: _515  and  _516
REMARK  225  A    between atoms: _525  and  _527
REMARK  226  A    between atoms: _527  and  _528
REMARK  227  A    between atoms: _527  and  _530
REMARK  228  A    between atoms: _530  and  _531
REMARK  229  A    between atoms: _534  and  _536
REMARK  230  A    between atoms: _536  and  _537
REMARK  231  A    between atoms: _536  and  _539
REMARK  232  A    between atoms: _539  and  _540
REMARK  233  A    between atoms: _543  and  _545
REMARK  234  A    between atoms: _545  and  _546
REMARK  235  A    between atoms: _545  and  _548
REMARK  236  A    between atoms: _548  and  _549
REMARK  237  A    between atoms: _552  and  _554
REMARK  238  A    between atoms: _554  and  _555
REMARK  239  A    between atoms: _554  and  _557
REMARK  240  A    between atoms: _557  and  _558
REMARK  241  A    between atoms: _564  and  _566
REMARK  242  A    between atoms: _566  and  _567
REMARK  243  A    between atoms: _569  and  _571
REMARK  244  A    between atoms: _571  and  _572
REMARK  245  A    between atoms: _571  and  _574
REMARK  246  A    between atoms: _574  and  _575
REMARK  247  A    between atoms: _578  and  _580
REMARK  248  A    between atoms: _580  and  _581
REMARK  249  A    between atoms: _580  and  _583
REMARK  250  A    between atoms: _583  and  _584
REMARK  251  A    between atoms: _586  and  _588
REMARK  252  A    between atoms: _588  and  _589
REMARK  253  A    between atoms: _588  and  _591
REMARK  254  A    between atoms: _591  and  _592
REMARK  255  A    between atoms: _595  and  _597
REMARK  256  A    between atoms: _597  and  _598
REMARK  257  A    between atoms: _597  and  _600
REMARK  258  A    between atoms: _600  and  _601
REMARK  259  A    between atoms: _606  and  _608
REMARK  260  A    between atoms: _608  and  _609
REMARK  261  A    between atoms: _608  and  _611
REMARK  262  A    between atoms: _611  and  _612
REMARK  263  A    between atoms: _618  and  _620
REMARK  264  A    between atoms: _620  and  _621
REMARK  265  A    between atoms: _620  and  _623
REMARK  266  A    between atoms: _623  and  _624
REMARK  267  A    between atoms: _624  and  _625
REMARK  268  A    between atoms: _625  and  _626
REMARK  269  A    between atoms: _626  and  _627
REMARK                            x       y       z     vdW  Elec       q    Type
REMARK                         _______ _______ _______ _____ _____    ______ ____
ROOT
ATOM      1  O   HOH     1       0.524  19.590  59.428  0.00  0.00    +0.000 OA
ENDROOT
TORSDOF 0
REMARK  Name = ../refined-set-2016/3v51/3v51_pocket.pdb
REMARK  269 active torsions:
REMARK  status: ('A' for Active; 'I' for Inactive)
REMARK    1  A    between atoms: _1  and  _3
REMARK    2  A    between atoms: _3  and  _4
REMARK    3  A    between atoms: _3  and  _6
REMARK    4  A    between atoms: _6  and  _7
REMARK    5  A    between atoms: _7  and  _8
REMARK    6  A    between atoms: _8  and  _9
REMARK    7  A    between atoms: _18  and  _20
REMARK    8  A    between atoms: _20  and  _21
REMARK    9  A    between atoms: _20  and  _23
REMARK   10  A    between atoms: _26  and  _28
REMARK   11  A    between atoms: _28  and  _29
REMARK   12  A    between atoms: _28  and  _31
REMARK   13  A    between atoms: _31  and  _32
REMARK   14  A    between atoms: _35  and  _37
REMARK   15  A    between atoms: _37  and  _38
REMARK   16  A    between atoms: _40  and  _42
REMARK   17  A    between atoms: _42  and  _43
REMARK   18  A    between atoms: _42  and  _45
REMARK   19  A    between atoms: _45  and  _46
REMARK   20  A    between atoms: _46  and  _47
REMARK   21  A    between atoms: _47  and  _48
REMARK   22  A    between atoms: _48  and  _49
REMARK   23  A    between atoms: _53  and  _55
REMARK   24  A    between atoms: _55  and  _56
REMARK   25  A    between atoms: _58  and  _60
REMARK   26  A    between atoms: _60  and  _61
REMARK   27  A    between atoms: _60  and  _63
REMARK   28  A    between atoms: _63  and  _64
REMARK   29  A    between atoms: _68  and  _69
REMARK   30  A    between atoms: _71  and  _73
REMARK   31  A    between atoms: _73  and  _74
REMARK   32  A    between atoms: _73  and  _76
REMARK   33  A    between atoms: _76  and  _77
REMARK   34  A    between atoms: _77  and  _78
REMARK   35  A    between atoms: _81  and  _83
REMARK   36  A    between atoms: _83  and  _84
REMARK   37  A    between atoms: _83  and  _86
REMARK   38  A    between atoms: _89  and  _91
REMARK   39  A    between atoms: _91  and  _92
REMARK   40  A    between atoms: _91  and  _94
REMARK   41  A    between atoms: _94  and  _95
REMARK   42  A    between atoms: _98  and  _100
REMARK   43  A    between atoms: _100  and  _101
REMARK   44  A    between atoms: _100  and  _103
REMARK   45  A    between atoms: _103  and  _104
REMARK   46  A    between atoms: _107  and  _109
REMARK   47  A    between atoms: _109  and  _110
REMARK   48  A    between atoms: _109  and  _112
REMARK   49  A    between atoms: _114  and  _116
REMARK   50  A    between atoms: _116  and  _117
REMARK   51  A    between atoms: _120  and  _122
REMARK   52  A    between atoms: _122  and  _123
REMARK   53  A    between atoms: _122  and  _125
REMARK   54  A    between atoms: _128  and  _130
REMARK   55  A    between atoms: _130  and  _131
REMARK   56  A    between atoms: _130  and  _133
REMARK   57  A    between atoms: _133  and  _134
REMARK   58  A    between atoms: _134  and  _135
REMARK   59  A    between atoms: _135  and  _136
REMARK   60  A    between atoms: _136  and  _137
REMARK   61  A    between atoms: _141  and  _143
REMARK   62  A    between atoms: _143  and  _144
REMARK   63  A    between atoms: _143  and  _146
REMARK   64  A    between atoms: _149  and  _151
REMARK   65  A    between atoms: _151  and  _152
REMARK   66  A    between atoms: _151  and  _154
REMARK   67  A    between atoms: _154  and  _155
REMARK   68  A    between atoms: _158  and  _160
REMARK   69  A    between atoms: _160  and  _161
REMARK   70  A    between atoms: _160  and  _163
REMARK   71  A    between atoms: _163  and  _164
REMARK   72  A    between atoms: _167  and  _169
REMARK   73  A    between atoms: _169  and  _170
REMARK   74  A    between atoms: _169  and  _172
REMARK   75  A    between atoms: _172  and  _173
REMARK   76  A    between atoms: _175  and  _177
REMARK   77  A    between atoms: _177  and  _178
REMARK   78  A    between atoms: _177  and  _180
REMARK   79  A    between atoms: _180  and  _181
REMARK   80  A    between atoms: _184  and  _186
REMARK   81  A    between atoms: _186  and  _187
REMARK   82  A    between atoms: _186  and  _189
REMARK   83  A    between atoms: _189  and  _190
REMARK   84  A    between atoms: _193  and  _195
REMARK   85  A    between atoms: _195  and  _196
REMARK   86  A    between atoms: _195  and  _198
REMARK   87  A    between atoms: _198  and  _199
REMARK   88  A    between atoms: _199  and  _200
REMARK   89  A    between atoms: _203  and  _205
REMARK   90  A    between atoms: _205  and  _206
REMARK   91  A    between atoms: _205  and  _208
REMARK   92  A    between atoms: _211  and  _213
REMARK   93  A    between atoms: _213  and  _214
REMARK   94  A    between atoms: _213  and  _216
REMARK   95  A    between atoms: _216  and  _217
REMARK   96  A    between atoms: _217  and  _218
REMARK   97  A    between atoms: _223  and  _225
REMARK   98  A    between atoms: _225  and  _226
REMARK   99  A    between atoms: _225  and  _228
REMARK  100  A    between atoms: _228  and  _229
REMARK  101  A    between atoms: _232  and  _234
REMARK  102  A    between atoms: _234  and  _235
REMARK  103  A    between atoms: _234  and  _237
REMARK  104  A    between atoms: _237  and  _238
REMARK  105  A    between atoms: _238  and  _239
REMARK  106  A    between atoms: _239  and  _240
REMARK  107  A    between atoms: _240  and  _241
REMARK  108  A    between atoms: _245  and  _247
REMARK  109  A    between atoms: _247  and  _248
REMARK  110  A    between atoms: _247  and  _250
REMARK  111  A    between atoms: _250  and  _251
REMARK  112  A    between atoms: _251  and  _252
REMARK  113  A    between atoms: _254  and  _256
REMARK  114  A    between atoms: _256  and  _257
REMARK  115  A    between atoms: _256  and  _259
REMARK  116  A    between atoms: _259  and  _260
REMARK  117  A    between atoms: _260  and  _261
REMARK  118  A    between atoms: _261  and  _262
REMARK  119  A    between atoms: _262  and  _263
REMARK  120  A    between atoms: _267  and  _269
REMARK  121  A    between atoms: _269  and  _270
REMARK  122  A    between atoms: _269  and  _272
REMARK  123  A    between atoms: _272  and  _273
REMARK  124  A    between atoms: _276  and  _278
REMARK  125  A    between atoms: _278  and  _279
REMARK  126  A    between atoms: _278  and  _281
REMARK  127  A    between atoms: _281  and  _282
REMARK  128  A    between atoms: _287  and  _288
REMARK  129  A    between atoms: _290  and  _292
REMARK  130  A    between atoms: _292  and  _293
REMARK  131  A    between atoms: _292  and  _295
REMARK  132  A    between atoms: _295  and  _296
REMARK  133  A    between atoms: _296  and  _297
REMARK  134  A    between atoms: _300  and  _302
REMARK  135  A    between atoms: _302  and  _303
REMARK  136  A    between atoms: _302  and  _305
REMARK  137  A    between atoms: _305  and  _306
REMARK  138  A    between atoms: _312  and  _314
REMARK  139  A    between atoms: _314  and  _315
REMARK  140  A    between atoms: _314  and  _317
REMARK  141  A    between atoms: _317  and  _318
REMARK  142  A    between atoms: _324  and  _326
REMARK  143  A    between atoms: _326  and  _327
REMARK  144  A    between atoms: _326  and  _329
REMARK  145  A    between atoms: _329  and  _330
REMARK  146  A    between atoms: _336  and  _338
REMARK  147  A    between atoms: _338  and  _339
REMARK  148  A    between atoms: _338  and  _341
REMARK  149  A    between atoms: _341  and  _342
REMARK  150  A    between atoms: _347  and  _348
REMARK  151  A    between atoms: _350  and  _352
REMARK  152  A    between atoms: _352  and  _353
REMARK  153  A    between atoms: _352  and  _355
REMARK  154  A    between atoms: _355  and  _356
REMARK  155  A    between atoms: _359  and  _361
REMARK  156  A    between atoms: _361  and  _362
REMARK  157  A    between atoms: _361  and  _364
REMARK  158  A    between atoms: _367  and  _369
REMARK  159  A    between atoms: _369  and  _370
REMARK  160  A    between atoms: _372  and  _374
REMARK  161  A    between atoms: _374  and  _375
REMARK  162  A    between atoms: _374  and  _377
REMARK  163  A    between atoms: _377  and  _378
REMARK  164  A    between atoms: _378  and  _379
REMARK  165  A    between atoms: _382  and  _384
REMARK  166  A    between atoms: _384  and  _385
REMARK  167  A    between atoms: _384  and  _387
REMARK  168  A    between atoms: _390  and  _392
REMARK  169  A    between atoms: _392  and  _393
REMARK  170  A    between atoms: _392  and  _395
REMARK  171  A    between atoms: _395  and  _396
REMARK  172  A    between atoms: _401  and  _402
REMARK  173  A    between atoms: _404  and  _406
REMARK  174  A    between atoms: _406  and  _407
REMARK  175  A    between atoms: _406  and  _409
REMARK  176  A    between atoms: _409  and  _410
REMARK  177  A    between atoms: _413  and  _415
REMARK  178  A    between atoms: _415  and  _416
REMARK  179  A    between atoms: _418  and  _420
REMARK  180  A    between atoms: _420  and  _421
REMARK  181  A    between atoms: _423  and  _425
REMARK  182  A    between atoms: _425  and  _426
REMARK  183  A    between atoms: _425  and  _428
REMARK  184  A    between atoms: _428  and  _429
REMARK  185  A    between atoms: _429  and  _430
REMARK  186  A    between atoms: _433  and  _435
REMARK  187  A    between atoms: _435  and  _436
REMARK  188  A    between atoms: _435  and  _438
REMARK  189  A    between atoms: _438  and  _439
REMARK  190  A    between atoms: _442  and  _444
REMARK  191  A    between atoms: _444  and  _445
REMARK  192  A    between atoms: _444  and  _447
REMARK  193  A    between atoms: _450  and  _452
REMARK  194  A    between atoms: _452  and  _453
REMARK  195  A    between atoms: _452  and  _455
REMARK  196  A    between atoms: _455  and  _456
REMARK  197  A    between atoms: _456  and  _457
REMARK  198  A    between atoms: _460  and  _462
REMARK  199  A    between atoms: _462  and  _463
REMARK  200  A    between atoms: _462  and  _465
REMARK  201  A    between atoms: _465  and  _466
REMARK  202  A    between atoms: _471  and  _473
REMARK  203  A    between atoms: _473  and  _474
REMARK  204  A    between atoms: _473  and  _476
REMARK  205  A    between atoms: _476  and  _477
REMARK  206  A    between atoms: _480  and  _482
REMARK  207  A    between atoms: _482  and  _483
REMARK  208  A    between atoms: _482  and  _485
REMARK  209  A    between atoms: _485  and  _486
REMARK  210  A    between atoms: _489  and  _491
REMARK  211  A    between atoms: _491  and  _492
REMARK  212  A    between atoms: _491  and  _494
REMARK  213  A    between atoms: _494  and  _495
REMARK  214  A    between atoms: _498  and  _500
REMARK  215  A    between atoms: _500  and  _501
REMARK  216  A    between atoms: _500  and  _503
REMARK  217  A    between atoms: _503  and  _504
REMARK  218  A    between atoms: _504  and  _505
REMARK  219  A    between atoms: _508  and  _510
REMARK  220  A    between atoms: _510  and  _511
REMARK  221  A    between atoms: _510  and  _513
REMARK  222  A    between atoms: _513  and  _514
REMARK  223  A    between atoms: _514  and  _515
REMARK  224  A    between atoms: _515  and  _516
REMARK  225  A    between atoms: _525  and  _527
REMARK  226  A    between atoms: _527  and  _528
REMARK  227  A    between atoms: _527  and  _530
REMARK  228  A    between atoms: _530  and  _531
REMARK  229  A    between atoms: _534  and  _536
REMARK  230  A    between atoms: _536  and  _537
REMARK  231  A    between atoms: _536  and  _539
REMARK  232  A    between atoms: _539  and  _540
REMARK  233  A    between atoms: _543  and  _545
REMARK  234  A    between atoms: _545  and  _546
REMARK  235  A    between atoms: _545  and  _548
REMARK  236  A    between atoms: _548  and  _549
REMARK  237  A    between atoms: _552  and  _554
REMARK  238  A    between atoms: _554  and  _555
REMARK  239  A    between atoms: _554  and  _557
REMARK  240  A    between atoms: _557  and  _558
REMARK  241  A    between atoms: _564  and  _566
REMARK  242  A    between atoms: _566  and  _567
REMARK  243  A    between atoms: _569  and  _571
REMARK  244  A    between atoms: _571  and  _572
REMARK  245  A    between atoms: _571  and  _574
REMARK  246  A    between atoms: _574  and  _575
REMARK  247  A    between atoms: _578  and  _580
REMARK  248  A    between atoms: _580  and  _581
REMARK  249  A    between atoms: _580  and  _583
REMARK  250  A    between atoms: _583  and  _584
REMARK  251  A    between atoms: _586  and  _588
REMARK  252  A    between atoms: _588  and  _589
REMARK  253  A    between atoms: _588  and  _591
REMARK  254  A    between atoms: _591  and  _592
REMARK  255  A    between atoms: _595  and  _597
REMARK  256  A    between atoms: _597  and  _598
REMARK  257  A    between atoms: _597  and  _600
REMARK  258  A    between atoms: _600  and  _601
REMARK  259  A    between atoms: _606  and  _608
REMARK  260  A    between atoms: _608  and  _609
REMARK  261  A    between atoms: _608  and  _611
REMARK  262  A    between atoms: _611  and  _612
REMARK  263  A    between atoms: _618  and  _620
REMARK  264  A    between atoms: _620  and  _621
REMARK  265  A    between atoms: _620  and  _623
REMARK  266  A    between atoms: _623  and  _624
REMARK  267  A    between atoms: _624  and  _625
REMARK  268  A    between atoms: _625  and  _626
REMARK  269  A    between atoms: _626  and  _627
REMARK                            x       y       z     vdW  Elec       q    Type
REMARK                         _______ _______ _______ _____ _____    ______ ____
ROOT
ATOM      1  O   HOH     1       5.237  13.410  62.493  0.00  0.00    +0.000 OA
ENDROOT
TORSDOF 0
REMARK  Name = ../refined-set-2016/3v51/3v51_pocket.pdb
REMARK  269 active torsions:
REMARK  status: ('A' for Active; 'I' for Inactive)
REMARK    1  A    between atoms: _1  and  _3
REMARK    2  A    between atoms: _3  and  _4
REMARK    3  A    between atoms: _3  and  _6
REMARK    4  A    between atoms: _6  and  _7
REMARK    5  A    between atoms: _7  and  _8
REMARK    6  A    between atoms: _8  and  _9
REMARK    7  A    between atoms: _18  and  _20
REMARK    8  A    between atoms: _20  and  _21
REMARK    9  A    between atoms: _20  and  _23
REMARK   10  A    between atoms: _26  and  _28
REMARK   11  A    between atoms: _28  and  _29
REMARK   12  A    between atoms: _28  and  _31
REMARK   13  A    between atoms: _31  and  _32
REMARK   14  A    between atoms: _35  and  _37
REMARK   15  A    between atoms: _37  and  _38
REMARK   16  A    between atoms: _40  and  _42
REMARK   17  A    between atoms: _42  and  _43
REMARK   18  A    between atoms: _42  and  _45
REMARK   19  A    between atoms: _45  and  _46
REMARK   20  A    between atoms: _46  and  _47
REMARK   21  A    between atoms: _47  and  _48
REMARK   22  A    between atoms: _48  and  _49
REMARK   23  A    between atoms: _53  and  _55
REMARK   24  A    between atoms: _55  and  _56
REMARK   25  A    between atoms: _58  and  _60
REMARK   26  A    between atoms: _60  and  _61
REMARK   27  A    between atoms: _60  and  _63
REMARK   28  A    between atoms: _63  and  _64
REMARK   29  A    between atoms: _68  and  _69
REMARK   30  A    between atoms: _71  and  _73
REMARK   31  A    between atoms: _73  and  _74
REMARK   32  A    between atoms: _73  and  _76
REMARK   33  A    between atoms: _76  and  _77
REMARK   34  A    between atoms: _77  and  _78
REMARK   35  A    between atoms: _81  and  _83
REMARK   36  A    between atoms: _83  and  _84
REMARK   37  A    between atoms: _83  and  _86
REMARK   38  A    between atoms: _89  and  _91
REMARK   39  A    between atoms: _91  and  _92
REMARK   40  A    between atoms: _91  and  _94
REMARK   41  A    between atoms: _94  and  _95
REMARK   42  A    between atoms: _98  and  _100
REMARK   43  A    between atoms: _100  and  _101
REMARK   44  A    between atoms: _100  and  _103
REMARK   45  A    between atoms: _103  and  _104
REMARK   46  A    between atoms: _107  and  _109
REMARK   47  A    between atoms: _109  and  _110
REMARK   48  A    between atoms: _109  and  _112
REMARK   49  A    between atoms: _114  and  _116
REMARK   50  A    between atoms: _116  and  _117
REMARK   51  A    between atoms: _120  and  _122
REMARK   52  A    between atoms: _122  and  _123
REMARK   53  A    between atoms: _122  and  _125
REMARK   54  A    between atoms: _128  and  _130
REMARK   55  A    between atoms: _130  and  _131
REMARK   56  A    between atoms: _130  and  _133
REMARK   57  A    between atoms: _133  and  _134
REMARK   58  A    between atoms: _134  and  _135
REMARK   59  A    between atoms: _135  and  _136
REMARK   60  A    between atoms: _136  and  _137
REMARK   61  A    between atoms: _141  and  _143
REMARK   62  A    between atoms: _143  and  _144
REMARK   63  A    between atoms: _143  and  _146
REMARK   64  A    between atoms: _149  and  _151
REMARK   65  A    between atoms: _151  and  _152
REMARK   66  A    between atoms: _151  and  _154
REMARK   67  A    between atoms: _154  and  _155
REMARK   68  A    between atoms: _158  and  _160
REMARK   69  A    between atoms: _160  and  _161
REMARK   70  A    between atoms: _160  and  _163
REMARK   71  A    between atoms: _163  and  _164
REMARK   72  A    between atoms: _167  and  _169
REMARK   73  A    between atoms: _169  and  _170
REMARK   74  A    between atoms: _169  and  _172
REMARK   75  A    between atoms: _172  and  _173
REMARK   76  A    between atoms: _175  and  _177
REMARK   77  A    between atoms: _177  and  _178
REMARK   78  A    between atoms: _177  and  _180
REMARK   79  A    between atoms: _180  and  _181
REMARK   80  A    between atoms: _184  and  _186
REMARK   81  A    between atoms: _186  and  _187
REMARK   82  A    between atoms: _186  and  _189
REMARK   83  A    between atoms: _189  and  _190
REMARK   84  A    between atoms: _193  and  _195
REMARK   85  A    between atoms: _195  and  _196
REMARK   86  A    between atoms: _195  and  _198
REMARK   87  A    between atoms: _198  and  _199
REMARK   88  A    between atoms: _199  and  _200
REMARK   89  A    between atoms: _203  and  _205
REMARK   90  A    between atoms: _205  and  _206
REMARK   91  A    between atoms: _205  and  _208
REMARK   92  A    between atoms: _211  and  _213
REMARK   93  A    between atoms: _213  and  _214
REMARK   94  A    between atoms: _213  and  _216
REMARK   95  A    between atoms: _216  and  _217
REMARK   96  A    between atoms: _217  and  _218
REMARK   97  A    between atoms: _223  and  _225
REMARK   98  A    between atoms: _225  and  _226
REMARK   99  A    between atoms: _225  and  _228
REMARK  100  A    between atoms: _228  and  _229
REMARK  101  A    between atoms: _232  and  _234
REMARK  102  A    between atoms: _234  and  _235
REMARK  103  A    between atoms: _234  and  _237
REMARK  104  A    between atoms: _237  and  _238
REMARK  105  A    between atoms: _238  and  _239
REMARK  106  A    between atoms: _239  and  _240
REMARK  107  A    between atoms: _240  and  _241
REMARK  108  A    between atoms: _245  and  _247
REMARK  109  A    between atoms: _247  and  _248
REMARK  110  A    between atoms: _247  and  _250
REMARK  111  A    between atoms: _250  and  _251
REMARK  112  A    between atoms: _251  and  _252
REMARK  113  A    between atoms: _254  and  _256
REMARK  114  A    between atoms: _256  and  _257
REMARK  115  A    between atoms: _256  and  _259
REMARK  116  A    between atoms: _259  and  _260
REMARK  117  A    between atoms: _260  and  _261
REMARK  118  A    between atoms: _261  and  _262
REMARK  119  A    between atoms: _262  and  _263
REMARK  120  A    between atoms: _267  and  _269
REMARK  121  A    between atoms: _269  and  _270
REMARK  122  A    between atoms: _269  and  _272
REMARK  123  A    between atoms: _272  and  _273
REMARK  124  A    between atoms: _276  and  _278
REMARK  125  A    between atoms: _278  and  _279
REMARK  126  A    between atoms: _278  and  _281
REMARK  127  A    between atoms: _281  and  _282
REMARK  128  A    between atoms: _287  and  _288
REMARK  129  A    between atoms: _290  and  _292
REMARK  130  A    between atoms: _292  and  _293
REMARK  131  A    between atoms: _292  and  _295
REMARK  132  A    between atoms: _295  and  _296
REMARK  133  A    between atoms: _296  and  _297
REMARK  134  A    between atoms: _300  and  _302
REMARK  135  A    between atoms: _302  and  _303
REMARK  136  A    between atoms: _302  and  _305
REMARK  137  A    between atoms: _305  and  _306
REMARK  138  A    between atoms: _312  and  _314
REMARK  139  A    between atoms: _314  and  _315
REMARK  140  A    between atoms: _314  and  _317
REMARK  141  A    between atoms: _317  and  _318
REMARK  142  A    between atoms: _324  and  _326
REMARK  143  A    between atoms: _326  and  _327
REMARK  144  A    between atoms: _326  and  _329
REMARK  145  A    between atoms: _329  and  _330
REMARK  146  A    between atoms: _336  and  _338
REMARK  147  A    between atoms: _338  and  _339
REMARK  148  A    between atoms: _338  and  _341
REMARK  149  A    between atoms: _341  and  _342
REMARK  150  A    between atoms: _347  and  _348
REMARK  151  A    between atoms: _350  and  _352
REMARK  152  A    between atoms: _352  and  _353
REMARK  153  A    between atoms: _352  and  _355
REMARK  154  A    between atoms: _355  and  _356
REMARK  155  A    between atoms: _359  and  _361
REMARK  156  A    between atoms: _361  and  _362
REMARK  157  A    between atoms: _361  and  _364
REMARK  158  A    between atoms: _367  and  _369
REMARK  159  A    between atoms: _369  and  _370
REMARK  160  A    between atoms: _372  and  _374
REMARK  161  A    between atoms: _374  and  _375
REMARK  162  A    between atoms: _374  and  _377
REMARK  163  A    between atoms: _377  and  _378
REMARK  164  A    between atoms: _378  and  _379
REMARK  165  A    between atoms: _382  and  _384
REMARK  166  A    between atoms: _384  and  _385
REMARK  167  A    between atoms: _384  and  _387
REMARK  168  A    between atoms: _390  and  _392
REMARK  169  A    between atoms: _392  and  _393
REMARK  170  A    between atoms: _392  and  _395
REMARK  171  A    between atoms: _395  and  _396
REMARK  172  A    between atoms: _401  and  _402
REMARK  173  A    between atoms: _404  and  _406
REMARK  174  A    between atoms: _406  and  _407
REMARK  175  A    between atoms: _406  and  _409
REMARK  176  A    between atoms: _409  and  _410
REMARK  177  A    between atoms: _413  and  _415
REMARK  178  A    between atoms: _415  and  _416
REMARK  179  A    between atoms: _418  and  _420
REMARK  180  A    between atoms: _420  and  _421
REMARK  181  A    between atoms: _423  and  _425
REMARK  182  A    between atoms: _425  and  _426
REMARK  183  A    between atoms: _425  and  _428
REMARK  184  A    between atoms: _428  and  _429
REMARK  185  A    between atoms: _429  and  _430
REMARK  186  A    between atoms: _433  and  _435
REMARK  187  A    between atoms: _435  and  _436
REMARK  188  A    between atoms: _435  and  _438
REMARK  189  A    between atoms: _438  and  _439
REMARK  190  A    between atoms: _442  and  _444
REMARK  191  A    between atoms: _444  and  _445
REMARK  192  A    between atoms: _444  and  _447
REMARK  193  A    between atoms: _450  and  _452
REMARK  194  A    between atoms: _452  and  _453
REMARK  195  A    between atoms: _452  and  _455
REMARK  196  A    between atoms: _455  and  _456
REMARK  197  A    between atoms: _456  and  _457
REMARK  198  A    between atoms: _460  and  _462
REMARK  199  A    between atoms: _462  and  _463
REMARK  200  A    between atoms: _462  and  _465
REMARK  201  A    between atoms: _465  and  _466
REMARK  202  A    between atoms: _471  and  _473
REMARK  203  A    between atoms: _473  and  _474
REMARK  204  A    between atoms: _473  and  _476
REMARK  205  A    between atoms: _476  and  _477
REMARK  206  A    between atoms: _480  and  _482
REMARK  207  A    between atoms: _482  and  _483
REMARK  208  A    between atoms: _482  and  _485
REMARK  209  A    between atoms: _485  and  _486
REMARK  210  A    between atoms: _489  and  _491
REMARK  211  A    between atoms: _491  and  _492
REMARK  212  A    between atoms: _491  and  _494
REMARK  213  A    between atoms: _494  and  _495
REMARK  214  A    between atoms: _498  and  _500
REMARK  215  A    between atoms: _500  and  _501
REMARK  216  A    between atoms: _500  and  _503
REMARK  217  A    between atoms: _503  and  _504
REMARK  218  A    between atoms: _504  and  _505
REMARK  219  A    between atoms: _508  and  _510
REMARK  220  A    between atoms: _510  and  _511
REMARK  221  A    between atoms: _510  and  _513
REMARK  222  A    between atoms: _513  and  _514
REMARK  223  A    between atoms: _514  and  _515
REMARK  224  A    between atoms: _515  and  _516
REMARK  225  A    between atoms: _525  and  _527
REMARK  226  A    between atoms: _527  and  _528
REMARK  227  A    between atoms: _527  and  _530
REMARK  228  A    between atoms: _530  and  _531
REMARK  229  A    between atoms: _534  and  _536
REMARK  230  A    between atoms: _536  and  _537
REMARK  231  A    between atoms: _536  and  _539
REMARK  232  A    between atoms: _539  and  _540
REMARK  233  A    between atoms: _543  and  _545
REMARK  234  A    between atoms: _545  and  _546
REMARK  235  A    between atoms: _545  and  _548
REMARK  236  A    between atoms: _548  and  _549
REMARK  237  A    between atoms: _552  and  _554
REMARK  238  A    between atoms: _554  and  _555
REMARK  239  A    between atoms: _554  and  _557
REMARK  240  A    between atoms: _557  and  _558
REMARK  241  A    between atoms: _564  and  _566
REMARK  242  A    between atoms: _566  and  _567
REMARK  243  A    between atoms: _569  and  _571
REMARK  244  A    between atoms: _571  and  _572
REMARK  245  A    between atoms: _571  and  _574
REMARK  246  A    between atoms: _574  and  _575
REMARK  247  A    between atoms: _578  and  _580
REMARK  248  A    between atoms: _580  and  _581
REMARK  249  A    between atoms: _580  and  _583
REMARK  250  A    between atoms: _583  and  _584
REMARK  251  A    between atoms: _586  and  _588
REMARK  252  A    between atoms: _588  and  _589
REMARK  253  A    between atoms: _588  and  _591
REMARK  254  A    between atoms: _591  and  _592
REMARK  255  A    between atoms: _595  and  _597
REMARK  256  A    between atoms: _597  and  _598
REMARK  257  A    between atoms: _597  and  _600
REMARK  258  A    between atoms: _600  and  _601
REMARK  259  A    between atoms: _606  and  _608
REMARK  260  A    between atoms: _608  and  _609
REMARK  261  A    between atoms: _608  and  _611
REMARK  262  A    between atoms: _611  and  _612
REMARK  263  A    between atoms: _618  and  _620
REMARK  264  A    between atoms: _620  and  _621
REMARK  265  A    between atoms: _620  and  _623
REMARK  266  A    between atoms: _623  and  _624
REMARK  267  A    between atoms: _624  and  _625
REMARK  268  A    between atoms: _625  and  _626
REMARK  269  A    between atoms: _626  and  _627
REMARK                            x       y       z     vdW  Elec       q    Type
REMARK                         _______ _______ _______ _____ _____    ______ ____
ROOT
ATOM      1  O   HOH     1      -3.066  17.637  59.398  0.00  0.00    +0.000 OA
ENDROOT
TORSDOF 0
