REMARK  Name = ../refined-set-2016/3cyw/3cyw_pocket.pdb
REMARK  231 active torsions:
REMARK  status: ('A' for Active; 'I' for Inactive)
REMARK    1  A    between atoms: _1  and  _3
REMARK    2  A    between atoms: _3  and  _4
REMARK    3  A    between atoms: _3  and  _6
REMARK    4  A    between atoms: _6  and  _7
REMARK    5  A    between atoms: _7  and  _8
REMARK    6  A    between atoms: _8  and  _9
REMARK    7  A    between atoms: _18  and  _20
REMARK    8  A    between atoms: _20  and  _21
REMARK    9  A    between atoms: _20  and  _23
REMARK   10  A    between atoms: _23  and  _24
REMARK   11  A    between atoms: _27  and  _29
REMARK   12  A    between atoms: _29  and  _30
REMARK   13  A    between atoms: _29  and  _32
REMARK   14  A    between atoms: _32  and  _33
REMARK   15  A    between atoms: _36  and  _38
REMARK   16  A    between atoms: _38  and  _39
REMARK   17  A    between atoms: _38  and  _41
REMARK   18  A    between atoms: _41  and  _42
REMARK   19  A    between atoms: _45  and  _47
REMARK   20  A    between atoms: _47  and  _48
REMARK   21  A    between atoms: _47  and  _50
REMARK   22  A    between atoms: _50  and  _51
REMARK   23  A    between atoms: _54  and  _56
REMARK   24  A    between atoms: _56  and  _57
REMARK   25  A    between atoms: _59  and  _61
REMARK   26  A    between atoms: _61  and  _62
REMARK   27  A    between atoms: _65  and  _67
REMARK   28  A    between atoms: _67  and  _68
REMARK   29  A    between atoms: _67  and  _70
REMARK   30  A    between atoms: _70  and  _71
REMARK   31  A    between atoms: _74  and  _76
REMARK   32  A    between atoms: _76  and  _77
REMARK   33  A    between atoms: _76  and  _79
REMARK   34  A    between atoms: _79  and  _80
REMARK   35  A    between atoms: _83  and  _85
REMARK   36  A    between atoms: _85  and  _86
REMARK   37  A    between atoms: _85  and  _88
REMARK   38  A    between atoms: _88  and  _89
REMARK   39  A    between atoms: _92  and  _94
REMARK   40  A    between atoms: _94  and  _95
REMARK   41  A    between atoms: _94  and  _97
REMARK   42  A    between atoms: _100  and  _102
REMARK   43  A    between atoms: _102  and  _103
REMARK   44  A    between atoms: _102  and  _105
REMARK   45  A    between atoms: _105  and  _106
REMARK   46  A    between atoms: _109  and  _111
REMARK   47  A    between atoms: _111  and  _112
REMARK   48  A    between atoms: _111  and  _114
REMARK   49  A    between atoms: _115  and  _116
REMARK   50  A    between atoms: _116  and  _117
REMARK   51  A    between atoms: _117  and  _118
REMARK   52  A    between atoms: _122  and  _124
REMARK   53  A    between atoms: _124  and  _125
REMARK   54  A    between atoms: _124  and  _127
REMARK   55  A    between atoms: _127  and  _128
REMARK   56  A    between atoms: _128  and  _129
REMARK   57  A    between atoms: _131  and  _133
REMARK   58  A    between atoms: _133  and  _134
REMARK   59  A    between atoms: _133  and  _136
REMARK   60  A    between atoms: _136  and  _137
REMARK   61  A    between atoms: _140  and  _142
REMARK   62  A    between atoms: _142  and  _143
REMARK   63  A    between atoms: _142  and  _145
REMARK   64  A    between atoms: _148  and  _150
REMARK   65  A    between atoms: _150  and  _151
REMARK   66  A    between atoms: _153  and  _155
REMARK   67  A    between atoms: _155  and  _156
REMARK   68  A    between atoms: _155  and  _158
REMARK   69  A    between atoms: _158  and  _159
REMARK   70  A    between atoms: _162  and  _164
REMARK   71  A    between atoms: _164  and  _165
REMARK   72  A    between atoms: _167  and  _169
REMARK   73  A    between atoms: _169  and  _170
REMARK   74  A    between atoms: _172  and  _174
REMARK   75  A    between atoms: _174  and  _175
REMARK   76  A    between atoms: _174  and  _177
REMARK   77  A    between atoms: _177  and  _178
REMARK   78  A    between atoms: _184  and  _186
REMARK   79  A    between atoms: _186  and  _187
REMARK   80  A    between atoms: _186  and  _189
REMARK   81  A    between atoms: _189  and  _190
REMARK   82  A    between atoms: _193  and  _195
REMARK   83  A    between atoms: _195  and  _196
REMARK   84  A    between atoms: _195  and  _198
REMARK   85  A    between atoms: _201  and  _203
REMARK   86  A    between atoms: _203  and  _204
REMARK   87  A    between atoms: _203  and  _206
REMARK   88  A    between atoms: _206  and  _207
REMARK   89  A    between atoms: _211  and  _212
REMARK   90  A    between atoms: _217  and  _219
REMARK   91  A    between atoms: _219  and  _220
REMARK   92  A    between atoms: _219  and  _222
REMARK   93  A    between atoms: _222  and  _223
REMARK   94  A    between atoms: _227  and  _228
REMARK   95  A    between atoms: _233  and  _235
REMARK   96  A    between atoms: _235  and  _236
REMARK   97  A    between atoms: _235  and  _238
REMARK   98  A    between atoms: _241  and  _243
REMARK   99  A    between atoms: _243  and  _244
REMARK  100  A    between atoms: _243  and  _246
REMARK  101  A    between atoms: _246  and  _247
REMARK  102  A    between atoms: _252  and  _254
REMARK  103  A    between atoms: _254  and  _255
REMARK  104  A    between atoms: _254  and  _257
REMARK  105  A    between atoms: _257  and  _258
REMARK  106  A    between atoms: _261  and  _263
REMARK  107  A    between atoms: _263  and  _264
REMARK  108  A    between atoms: _263  and  _266
REMARK  109  A    between atoms: _266  and  _267
REMARK  110  A    between atoms: _270  and  _272
REMARK  111  A    between atoms: _272  and  _273
REMARK  112  A    between atoms: _275  and  _277
REMARK  113  A    between atoms: _277  and  _278
REMARK  114  A    between atoms: _277  and  _280
REMARK  115  A    between atoms: _280  and  _281
REMARK  116  A    between atoms: _281  and  _282
REMARK  117  A    between atoms: _282  and  _283
REMARK  118  A    between atoms: _292  and  _294
REMARK  119  A    between atoms: _294  and  _295
REMARK  120  A    between atoms: _294  and  _297
REMARK  121  A    between atoms: _297  and  _298
REMARK  122  A    between atoms: _303  and  _305
REMARK  123  A    between atoms: _305  and  _306
REMARK  124  A    between atoms: _305  and  _308
REMARK  125  A    between atoms: _308  and  _309
REMARK  126  A    between atoms: _309  and  _310
REMARK  127  A    between atoms: _310  and  _311
REMARK  128  A    between atoms: _320  and  _322
REMARK  129  A    between atoms: _322  and  _323
REMARK  130  A    between atoms: _322  and  _325
REMARK  131  A    between atoms: _325  and  _326
REMARK  132  A    between atoms: _329  and  _331
REMARK  133  A    between atoms: _331  and  _332
REMARK  134  A    between atoms: _331  and  _334
REMARK  135  A    between atoms: _334  and  _335
REMARK  136  A    between atoms: _338  and  _340
REMARK  137  A    between atoms: _340  and  _341
REMARK  138  A    between atoms: _340  and  _343
REMARK  139  A    between atoms: _343  and  _344
REMARK  140  A    between atoms: _347  and  _349
REMARK  141  A    between atoms: _349  and  _350
REMARK  142  A    between atoms: _349  and  _352
REMARK  143  A    between atoms: _352  and  _353
REMARK  144  A    between atoms: _356  and  _358
REMARK  145  A    between atoms: _358  and  _359
REMARK  146  A    between atoms: _361  and  _363
REMARK  147  A    between atoms: _363  and  _364
REMARK  148  A    between atoms: _367  and  _369
REMARK  149  A    between atoms: _369  and  _370
REMARK  150  A    between atoms: _369  and  _372
REMARK  151  A    between atoms: _372  and  _373
REMARK  152  A    between atoms: _376  and  _378
REMARK  153  A    between atoms: _378  and  _379
REMARK  154  A    between atoms: _378  and  _381
REMARK  155  A    between atoms: _381  and  _382
REMARK  156  A    between atoms: _385  and  _387
REMARK  157  A    between atoms: _387  and  _388
REMARK  158  A    between atoms: _387  and  _390
REMARK  159  A    between atoms: _390  and  _391
REMARK  160  A    between atoms: _394  and  _396
REMARK  161  A    between atoms: _396  and  _397
REMARK  162  A    between atoms: _396  and  _399
REMARK  163  A    between atoms: _402  and  _404
REMARK  164  A    between atoms: _404  and  _405
REMARK  165  A    between atoms: _404  and  _407
REMARK  166  A    between atoms: _407  and  _408
REMARK  167  A    between atoms: _408  and  _409
REMARK  168  A    between atoms: _409  and  _410
REMARK  169  A    between atoms: _410  and  _411
REMARK  170  A    between atoms: _415  and  _417
REMARK  171  A    between atoms: _417  and  _418
REMARK  172  A    between atoms: _417  and  _420
REMARK  173  A    between atoms: _420  and  _421
REMARK  174  A    between atoms: _421  and  _422
REMARK  175  A    between atoms: _424  and  _426
REMARK  176  A    between atoms: _426  and  _427
REMARK  177  A    between atoms: _426  and  _429
REMARK  178  A    between atoms: _429  and  _430
REMARK  179  A    between atoms: _433  and  _435
REMARK  180  A    between atoms: _435  and  _436
REMARK  181  A    between atoms: _435  and  _438
REMARK  182  A    between atoms: _441  and  _443
REMARK  183  A    between atoms: _443  and  _444
REMARK  184  A    between atoms: _446  and  _448
REMARK  185  A    between atoms: _448  and  _449
REMARK  186  A    between atoms: _448  and  _451
REMARK  187  A    between atoms: _451  and  _452
REMARK  188  A    between atoms: _455  and  _457
REMARK  189  A    between atoms: _457  and  _458
REMARK  190  A    between atoms: _460  and  _462
REMARK  191  A    between atoms: _462  and  _463
REMARK  192  A    between atoms: _465  and  _467
REMARK  193  A    between atoms: _467  and  _468
REMARK  194  A    between atoms: _467  and  _470
REMARK  195  A    between atoms: _470  and  _471
REMARK  196  A    between atoms: _474  and  _476
REMARK  197  A    between atoms: _476  and  _477
REMARK  198  A    between atoms: _476  and  _479
REMARK  199  A    between atoms: _479  and  _480
REMARK  200  A    between atoms: _483  and  _485
REMARK  201  A    between atoms: _485  and  _486
REMARK  202  A    between atoms: _485  and  _488
REMARK  203  A    between atoms: _488  and  _489
REMARK  204  A    between atoms: _493  and  _494
REMARK  205  A    between atoms: _499  and  _501
REMARK  206  A    between atoms: _501  and  _502
REMARK  207  A    between atoms: _501  and  _504
REMARK  208  A    between atoms: _507  and  _509
REMARK  209  A    between atoms: _509  and  _510
REMARK  210  A    between atoms: _509  and  _512
REMARK  211  A    between atoms: _512  and  _513
REMARK  212  A    between atoms: _518  and  _520
REMARK  213  A    between atoms: _520  and  _521
REMARK  214  A    between atoms: _520  and  _523
REMARK  215  A    between atoms: _523  and  _524
REMARK  216  A    between atoms: _527  and  _529
REMARK  217  A    between atoms: _529  and  _530
REMARK  218  A    between atoms: _529  and  _532
REMARK  219  A    between atoms: _532  and  _533
REMARK  220  A    between atoms: _536  and  _538
REMARK  221  A    between atoms: _538  and  _539
REMARK  222  A    between atoms: _541  and  _543
REMARK  223  A    between atoms: _543  and  _544
REMARK  224  A    between atoms: _543  and  _546
REMARK  225  A    between atoms: _546  and  _547
REMARK  226  A    between atoms: _547  and  _548
REMARK  227  A    between atoms: _548  and  _549
REMARK  228  A    between atoms: _558  and  _560
REMARK  229  A    between atoms: _560  and  _561
REMARK  230  A    between atoms: _560  and  _563
REMARK  231  A    between atoms: _563  and  _564
REMARK                            x       y       z     vdW  Elec       q    Type
REMARK                         _______ _______ _______ _____ _____    ______ ____
ROOT
ATOM      1  NE  ARG A   1     -23.283  22.288 -15.036  0.00  0.00    -0.265 N 
ATOM      2  CZ  ARG A   1     -22.424  23.057 -14.358  0.00  0.00    +0.342 C 
ATOM      3  NH2 ARG A   1     -21.952  22.530 -13.222  0.00  0.00    -0.292 N 
ATOM      4 HH21 ARG A   1     -21.279  23.068 -12.639  0.00  0.00    +0.255 HD
ATOM      5 HH22 ARG A   1     -22.258  21.582 -12.922  0.00  0.00    +0.255 HD
ATOM      6  NH1 ARG A   1     -22.064  24.251 -14.822  0.00  0.00    -0.292 N 
ATOM      7 HH11 ARG A   1     -21.395  24.838 -14.284  0.00  0.00    +0.255 HD
ATOM      8 HH12 ARG A   1     -22.452  24.597 -15.723  0.00  0.00    +0.255 HD
ATOM      9  HE  ARG A   1     -23.666  22.630 -15.940  0.00  0.00    +0.259 HD
ENDROOT
BRANCH   1  10
ATOM     10  CD  ARG A   1     -23.698  20.972 -14.534  0.00  0.00    +0.174 C 
BRANCH  10  11
ATOM     11  CG  ARG A   1     -24.282  20.219 -15.702  0.00  0.00    +0.045 C 
BRANCH  11  12
ATOM     12  CB  ARG A   1     -24.767  18.846 -15.346  0.00  0.00    +0.029 C 
BRANCH  12  13
ATOM     13  CA  ARG A   1     -25.332  18.033 -16.540  0.00  0.00    +0.133 C 
BRANCH  13  14
ATOM     14  N   ARG A   1     -26.547  18.657 -17.065  0.00  0.00    -0.239 NA
ATOM     15  H   ARG A   1     -26.895  19.537 -16.633  0.00  0.00    +0.142 HD
ENDBRANCH  13  14
BRANCH  13  16
ATOM     16  C   ARG A   1     -25.599  16.597 -16.109  0.00  0.00    +0.224 C 
ATOM     17  O   ARG A   1     -26.613  16.374 -15.428  0.00  0.00    -0.287 OA
ENDBRANCH  13  16
ENDBRANCH  12  13
ENDBRANCH  11  12
ENDBRANCH  10  11
ENDBRANCH   1  10
TORSDOF 6
REMARK  Name = ../refined-set-2016/3cyw/3cyw_pocket.pdb
REMARK  231 active torsions:
REMARK  status: ('A' for Active; 'I' for Inactive)
REMARK    1  A    between atoms: _1  and  _3
REMARK    2  A    between atoms: _3  and  _4
REMARK    3  A    between atoms: _3  and  _6
REMARK    4  A    between atoms: _6  and  _7
REMARK    5  A    between atoms: _7  and  _8
REMARK    6  A    between atoms: _8  and  _9
REMARK    7  A    between atoms: _18  and  _20
REMARK    8  A    between atoms: _20  and  _21
REMARK    9  A    between atoms: _20  and  _23
REMARK   10  A    between atoms: _23  and  _24
REMARK   11  A    between atoms: _27  and  _29
REMARK   12  A    between atoms: _29  and  _30
REMARK   13  A    between atoms: _29  and  _32
REMARK   14  A    between atoms: _32  and  _33
REMARK   15  A    between atoms: _36  and  _38
REMARK   16  A    between atoms: _38  and  _39
REMARK   17  A    between atoms: _38  and  _41
REMARK   18  A    between atoms: _41  and  _42
REMARK   19  A    between atoms: _45  and  _47
REMARK   20  A    between atoms: _47  and  _48
REMARK   21  A    between atoms: _47  and  _50
REMARK   22  A    between atoms: _50  and  _51
REMARK   23  A    between atoms: _54  and  _56
REMARK   24  A    between atoms: _56  and  _57
REMARK   25  A    between atoms: _59  and  _61
REMARK   26  A    between atoms: _61  and  _62
REMARK   27  A    between atoms: _65  and  _67
REMARK   28  A    between atoms: _67  and  _68
REMARK   29  A    between atoms: _67  and  _70
REMARK   30  A    between atoms: _70  and  _71
REMARK   31  A    between atoms: _74  and  _76
REMARK   32  A    between atoms: _76  and  _77
REMARK   33  A    between atoms: _76  and  _79
REMARK   34  A    between atoms: _79  and  _80
REMARK   35  A    between atoms: _83  and  _85
REMARK   36  A    between atoms: _85  and  _86
REMARK   37  A    between atoms: _85  and  _88
REMARK   38  A    between atoms: _88  and  _89
REMARK   39  A    between atoms: _92  and  _94
REMARK   40  A    between atoms: _94  and  _95
REMARK   41  A    between atoms: _94  and  _97
REMARK   42  A    between atoms: _100  and  _102
REMARK   43  A    between atoms: _102  and  _103
REMARK   44  A    between atoms: _102  and  _105
REMARK   45  A    between atoms: _105  and  _106
REMARK   46  A    between atoms: _109  and  _111
REMARK   47  A    between atoms: _111  and  _112
REMARK   48  A    between atoms: _111  and  _114
REMARK   49  A    between atoms: _115  and  _116
REMARK   50  A    between atoms: _116  and  _117
REMARK   51  A    between atoms: _117  and  _118
REMARK   52  A    between atoms: _122  and  _124
REMARK   53  A    between atoms: _124  and  _125
REMARK   54  A    between atoms: _124  and  _127
REMARK   55  A    between atoms: _127  and  _128
REMARK   56  A    between atoms: _128  and  _129
REMARK   57  A    between atoms: _131  and  _133
REMARK   58  A    between atoms: _133  and  _134
REMARK   59  A    between atoms: _133  and  _136
REMARK   60  A    between atoms: _136  and  _137
REMARK   61  A    between atoms: _140  and  _142
REMARK   62  A    between atoms: _142  and  _143
REMARK   63  A    between atoms: _142  and  _145
REMARK   64  A    between atoms: _148  and  _150
REMARK   65  A    between atoms: _150  and  _151
REMARK   66  A    between atoms: _153  and  _155
REMARK   67  A    between atoms: _155  and  _156
REMARK   68  A    between atoms: _155  and  _158
REMARK   69  A    between atoms: _158  and  _159
REMARK   70  A    between atoms: _162  and  _164
REMARK   71  A    between atoms: _164  and  _165
REMARK   72  A    between atoms: _167  and  _169
REMARK   73  A    between atoms: _169  and  _170
REMARK   74  A    between atoms: _172  and  _174
REMARK   75  A    between atoms: _174  and  _175
REMARK   76  A    between atoms: _174  and  _177
REMARK   77  A    between atoms: _177  and  _178
REMARK   78  A    between atoms: _184  and  _186
REMARK   79  A    between atoms: _186  and  _187
REMARK   80  A    between atoms: _186  and  _189
REMARK   81  A    between atoms: _189  and  _190
REMARK   82  A    between atoms: _193  and  _195
REMARK   83  A    between atoms: _195  and  _196
REMARK   84  A    between atoms: _195  and  _198
REMARK   85  A    between atoms: _201  and  _203
REMARK   86  A    between atoms: _203  and  _204
REMARK   87  A    between atoms: _203  and  _206
REMARK   88  A    between atoms: _206  and  _207
REMARK   89  A    between atoms: _211  and  _212
REMARK   90  A    between atoms: _217  and  _219
REMARK   91  A    between atoms: _219  and  _220
REMARK   92  A    between atoms: _219  and  _222
REMARK   93  A    between atoms: _222  and  _223
REMARK   94  A    between atoms: _227  and  _228
REMARK   95  A    between atoms: _233  and  _235
REMARK   96  A    between atoms: _235  and  _236
REMARK   97  A    between atoms: _235  and  _238
REMARK   98  A    between atoms: _241  and  _243
REMARK   99  A    between atoms: _243  and  _244
REMARK  100  A    between atoms: _243  and  _246
REMARK  101  A    between atoms: _246  and  _247
REMARK  102  A    between atoms: _252  and  _254
REMARK  103  A    between atoms: _254  and  _255
REMARK  104  A    between atoms: _254  and  _257
REMARK  105  A    between atoms: _257  and  _258
REMARK  106  A    between atoms: _261  and  _263
REMARK  107  A    between atoms: _263  and  _264
REMARK  108  A    between atoms: _263  and  _266
REMARK  109  A    between atoms: _266  and  _267
REMARK  110  A    between atoms: _270  and  _272
REMARK  111  A    between atoms: _272  and  _273
REMARK  112  A    between atoms: _275  and  _277
REMARK  113  A    between atoms: _277  and  _278
REMARK  114  A    between atoms: _277  and  _280
REMARK  115  A    between atoms: _280  and  _281
REMARK  116  A    between atoms: _281  and  _282
REMARK  117  A    between atoms: _282  and  _283
REMARK  118  A    between atoms: _292  and  _294
REMARK  119  A    between atoms: _294  and  _295
REMARK  120  A    between atoms: _294  and  _297
REMARK  121  A    between atoms: _297  and  _298
REMARK  122  A    between atoms: _303  and  _305
REMARK  123  A    between atoms: _305  and  _306
REMARK  124  A    between atoms: _305  and  _308
REMARK  125  A    between atoms: _308  and  _309
REMARK  126  A    between atoms: _309  and  _310
REMARK  127  A    between atoms: _310  and  _311
REMARK  128  A    between atoms: _320  and  _322
REMARK  129  A    between atoms: _322  and  _323
REMARK  130  A    between atoms: _322  and  _325
REMARK  131  A    between atoms: _325  and  _326
REMARK  132  A    between atoms: _329  and  _331
REMARK  133  A    between atoms: _331  and  _332
REMARK  134  A    between atoms: _331  and  _334
REMARK  135  A    between atoms: _334  and  _335
REMARK  136  A    between atoms: _338  and  _340
REMARK  137  A    between atoms: _340  and  _341
REMARK  138  A    between atoms: _340  and  _343
REMARK  139  A    between atoms: _343  and  _344
REMARK  140  A    between atoms: _347  and  _349
REMARK  141  A    between atoms: _349  and  _350
REMARK  142  A    between atoms: _349  and  _352
REMARK  143  A    between atoms: _352  and  _353
REMARK  144  A    between atoms: _356  and  _358
REMARK  145  A    between atoms: _358  and  _359
REMARK  146  A    between atoms: _361  and  _363
REMARK  147  A    between atoms: _363  and  _364
REMARK  148  A    between atoms: _367  and  _369
REMARK  149  A    between atoms: _369  and  _370
REMARK  150  A    between atoms: _369  and  _372
REMARK  151  A    between atoms: _372  and  _373
REMARK  152  A    between atoms: _376  and  _378
REMARK  153  A    between atoms: _378  and  _379
REMARK  154  A    between atoms: _378  and  _381
REMARK  155  A    between atoms: _381  and  _382
REMARK  156  A    between atoms: _385  and  _387
REMARK  157  A    between atoms: _387  and  _388
REMARK  158  A    between atoms: _387  and  _390
REMARK  159  A    between atoms: _390  and  _391
REMARK  160  A    between atoms: _394  and  _396
REMARK  161  A    between atoms: _396  and  _397
REMARK  162  A    between atoms: _396  and  _399
REMARK  163  A    between atoms: _402  and  _404
REMARK  164  A    between atoms: _404  and  _405
REMARK  165  A    between atoms: _404  and  _407
REMARK  166  A    between atoms: _407  and  _408
REMARK  167  A    between atoms: _408  and  _409
REMARK  168  A    between atoms: _409  and  _410
REMARK  169  A    between atoms: _410  and  _411
REMARK  170  A    between atoms: _415  and  _417
REMARK  171  A    between atoms: _417  and  _418
REMARK  172  A    between atoms: _417  and  _420
REMARK  173  A    between atoms: _420  and  _421
REMARK  174  A    between atoms: _421  and  _422
REMARK  175  A    between atoms: _424  and  _426
REMARK  176  A    between atoms: _426  and  _427
REMARK  177  A    between atoms: _426  and  _429
REMARK  178  A    between atoms: _429  and  _430
REMARK  179  A    between atoms: _433  and  _435
REMARK  180  A    between atoms: _435  and  _436
REMARK  181  A    between atoms: _435  and  _438
REMARK  182  A    between atoms: _441  and  _443
REMARK  183  A    between atoms: _443  and  _444
REMARK  184  A    between atoms: _446  and  _448
REMARK  185  A    between atoms: _448  and  _449
REMARK  186  A    between atoms: _448  and  _451
REMARK  187  A    between atoms: _451  and  _452
REMARK  188  A    between atoms: _455  and  _457
REMARK  189  A    between atoms: _457  and  _458
REMARK  190  A    between atoms: _460  and  _462
REMARK  191  A    between atoms: _462  and  _463
REMARK  192  A    between atoms: _465  and  _467
REMARK  193  A    between atoms: _467  and  _468
REMARK  194  A    between atoms: _467  and  _470
REMARK  195  A    between atoms: _470  and  _471
REMARK  196  A    between atoms: _474  and  _476
REMARK  197  A    between atoms: _476  and  _477
REMARK  198  A    between atoms: _476  and  _479
REMARK  199  A    between atoms: _479  and  _480
REMARK  200  A    between atoms: _483  and  _485
REMARK  201  A    between atoms: _485  and  _486
REMARK  202  A    between atoms: _485  and  _488
REMARK  203  A    between atoms: _488  and  _489
REMARK  204  A    between atoms: _493  and  _494
REMARK  205  A    between atoms: _499  and  _501
REMARK  206  A    between atoms: _501  and  _502
REMARK  207  A    between atoms: _501  and  _504
REMARK  208  A    between atoms: _507  and  _509
REMARK  209  A    between atoms: _509  and  _510
REMARK  210  A    between atoms: _509  and  _512
REMARK  211  A    between atoms: _512  and  _513
REMARK  212  A    between atoms: _518  and  _520
REMARK  213  A    between atoms: _520  and  _521
REMARK  214  A    between atoms: _520  and  _523
REMARK  215  A    between atoms: _523  and  _524
REMARK  216  A    between atoms: _527  and  _529
REMARK  217  A    between atoms: _529  and  _530
REMARK  218  A    between atoms: _529  and  _532
REMARK  219  A    between atoms: _532  and  _533
REMARK  220  A    between atoms: _536  and  _538
REMARK  221  A    between atoms: _538  and  _539
REMARK  222  A    between atoms: _541  and  _543
REMARK  223  A    between atoms: _543  and  _544
REMARK  224  A    between atoms: _543  and  _546
REMARK  225  A    between atoms: _546  and  _547
REMARK  226  A    between atoms: _547  and  _548
REMARK  227  A    between atoms: _548  and  _549
REMARK  228  A    between atoms: _558  and  _560
REMARK  229  A    between atoms: _560  and  _561
REMARK  230  A    between atoms: _560  and  _563
REMARK  231  A    between atoms: _563  and  _564
REMARK                            x       y       z     vdW  Elec       q    Type
REMARK                         _______ _______ _______ _____ _____    ______ ____
ROOT
ATOM      1  C   ALA A   6     -10.908  12.450 -17.220  0.00  0.00    +0.241 C 
ATOM      2  O   ALA A   6     -11.550  11.418 -17.233  0.00  0.00    -0.273 OA
ATOM      3  N   ASP A   7      -9.567  12.481 -17.269  0.00  0.00    -0.297 N 
ATOM      4  H   ASP A   7      -9.063  13.388 -17.335  0.00  0.00    +0.150 HD
ENDROOT
BRANCH   1   5
ATOM      5  CA  ALA A   6     -11.618  13.797 -17.157  0.00  0.00    +0.149 C 
ATOM      6  CB  ALA A   6     -12.390  13.901 -15.854  0.00  0.00    +0.031 C 
BRANCH   5   8
ATOM      7  C   GLY A   5     -12.251  14.674 -19.348  0.00  0.00    +0.243 C 
ATOM      8  N   ALA A   6     -12.525  13.909 -18.302  0.00  0.00    -0.297 N 
ATOM      9  H   ALA A   6     -13.414  13.370 -18.293  0.00  0.00    +0.150 HD
ATOM     10  O   GLY A   5     -11.233  15.366 -19.467  0.00  0.00    -0.273 OA
BRANCH   7  11
ATOM     11  CA  GLY A   5     -13.272  14.722 -20.438  0.00  0.00    +0.176 C 
BRANCH  11  13
ATOM     12  C   THR A   4     -14.421  12.566 -20.595  0.00  0.00    +0.243 C 
ATOM     13  N   GLY A   5     -14.412  13.849 -20.261  0.00  0.00    -0.295 N 
ATOM     14  H   GLY A   5     -15.277  14.252 -19.847  0.00  0.00    +0.150 HD
ATOM     15  O   THR A   4     -13.448  12.030 -21.133  0.00  0.00    -0.273 OA
BRANCH  12  16
ATOM     16  CA  THR A   4     -15.678  11.766 -20.279  0.00  0.00    +0.176 C 
BRANCH  16  19
ATOM     17  C   ASP A   3     -16.158  12.592 -18.037  0.00  0.00    +0.241 C 
ATOM     18  O   ASP A   3     -15.062  12.234 -17.650  0.00  0.00    -0.273 OA
ATOM     19  N   THR A   4     -16.550  12.420 -19.329  0.00  0.00    -0.295 N 
ATOM     20  H   THR A   4     -17.483  12.761 -19.635  0.00  0.00    +0.150 HD
BRANCH  17  21
ATOM     21  CA  ASP A   3     -17.198  13.264 -17.153  0.00  0.00    +0.160 C 
BRANCH  21  23
ATOM     22  C   LEU A   2     -19.308  12.449 -16.316  0.00  0.00    +0.241 C 
ATOM     23  N   ASP A   3     -17.978  12.400 -16.297  0.00  0.00    -0.297 N 
ATOM     24  H   ASP A   3     -17.496  11.734 -15.660  0.00  0.00    +0.150 HD
ATOM     25  O   LEU A   2     -19.936  13.058 -17.185  0.00  0.00    -0.273 OA
BRANCH  22  26
ATOM     26  CA  LEU A   2     -20.012  11.732 -15.177  0.00  0.00    +0.149 C 
BRANCH  26  29
ATOM     27  C   LEU A   1     -19.891  13.405 -13.421  0.00  0.00    +0.238 C 
ATOM     28  O   LEU A   1     -18.715  13.138 -13.149  0.00  0.00    -0.274 OA
ATOM     29  N   LEU A   2     -20.617  12.732 -14.304  0.00  0.00    -0.297 N 
ATOM     30  H   LEU A   2     -21.637  12.921 -14.375  0.00  0.00    +0.150 HD
BRANCH  27  31
ATOM     31  CA  LEU A   1     -20.543  14.592 -12.715  0.00  0.00    +0.145 C 
BRANCH  31  32
ATOM     32  N   LEU A   1     -20.383  14.453 -11.269  0.00  0.00    -0.238 NA
ATOM     33  H   LEU A   1     -19.528  14.861 -10.840  0.00  0.00    +0.142 HD
ENDBRANCH  31  32
BRANCH  31  34
ATOM     34  CB  LEU A   1     -19.875  15.856 -13.251  0.00  0.00    +0.026 C 
BRANCH  34  35
ATOM     35  CG  LEU A   1     -20.625  17.174 -13.248  0.00  0.00    +0.002 C 
ATOM     36  CD2 LEU A   1     -19.757  18.288 -13.813  0.00  0.00    +0.000 C 
ATOM     37  CD1 LEU A   1     -21.905  17.036 -14.055  0.00  0.00    +0.000 C 
ENDBRANCH  34  35
ENDBRANCH  31  34
ENDBRANCH  27  31
ENDBRANCH  26  29
BRANCH  26  38
ATOM     38  CB  LEU A   2     -21.060  10.770 -15.700  0.00  0.00    +0.029 C 
BRANCH  38  39
ATOM     39  CG  LEU A   2     -21.846   9.977 -14.651  0.00  0.00    +0.002 C 
ATOM     40  CD2 LEU A   2     -20.917   9.143 -13.784  0.00  0.00    +0.000 C 
ATOM     41  CD1 LEU A   2     -22.897   9.197 -15.412  0.00  0.00    +0.000 C 
ENDBRANCH  38  39
ENDBRANCH  26  38
ENDBRANCH  22  26
ENDBRANCH  21  23
BRANCH  21  42
ATOM     42  CB  ASP A   3     -16.489  14.276 -16.276  0.00  0.00    +0.143 C 
BRANCH  42  43
ATOM     43  CG  ASP A   3     -15.831  15.387 -17.050  0.00  0.00    +0.367 C 
ATOM     44  OD2 ASP A   3     -15.350  16.321 -16.349  0.00  0.00    -0.246 OA
ATOM     45  OD1 ASP A   3     -15.833  15.330 -18.311  0.00  0.00    -0.246 OA
ENDBRANCH  42  43
ENDBRANCH  21  42
ENDBRANCH  17  21
ENDBRANCH  16  19
BRANCH  16  46
ATOM     46  CB  THR A   4     -16.436  11.477 -21.590  0.00  0.00    +0.137 C 
ATOM     47  CG2 THR A   4     -17.630  10.574 -21.338  0.00  0.00    +0.034 C 
BRANCH  46  48
ATOM     48  OG1 THR A   4     -16.926  12.720 -22.168  0.00  0.00    -0.382 OA
ATOM     49  HG1 THR A   4     -16.161  13.318 -22.359  0.00  0.00    +0.210 HD
ENDBRANCH  46  48
ENDBRANCH  16  46
ENDBRANCH  12  16
ENDBRANCH  11  13
ENDBRANCH   7  11
ENDBRANCH   5   8
ENDBRANCH   1   5
BRANCH   3  50
ATOM     50  CA  ASP A   7      -8.828  11.226 -17.228  0.00  0.00    +0.160 C 
BRANCH  50  51
ATOM     51  C   ASP A   7      -9.087  10.463 -15.923  0.00  0.00    +0.241 C 
ATOM     52  N   ASP A   8      -9.103  11.197 -14.796  0.00  0.00    -0.297 N 
ATOM     53  H   ASP A   8      -9.036  12.234 -14.830  0.00  0.00    +0.150 HD
ATOM     54  O   ASP A   7      -9.210   9.234 -15.933  0.00  0.00    -0.273 OA
BRANCH  52  55
ATOM     55  CA  ASP A   8      -9.218  10.491 -13.524  0.00  0.00    +0.160 C 
BRANCH  55  56
ATOM     56  C   ASP A   8     -10.274  11.180 -12.653  0.00  0.00    +0.241 C 
ATOM     57  N   THR A   9     -10.793  10.437 -11.707  0.00  0.00    -0.295 N 
ATOM     58  H   THR A   9     -10.464   9.454 -11.625  0.00  0.00    +0.150 HD
ATOM     59  O   ASP A   8     -10.610  12.330 -12.844  0.00  0.00    -0.273 OA
BRANCH  57  60
ATOM     60  CA  THR A   9     -11.794  10.895 -10.769  0.00  0.00    +0.176 C 
BRANCH  60  61
ATOM     61  C   THR A   9     -11.209  11.860  -9.749  0.00  0.00    +0.243 C 
ATOM     62  O   THR A   9     -10.150  11.563  -9.197  0.00  0.00    -0.273 OA
ATOM     63  N   VAL A  10     -11.897  12.971  -9.530  0.00  0.00    -0.297 N 
ATOM     64  H   VAL A  10     -12.787  13.121 -10.046  0.00  0.00    +0.150 HD
BRANCH  63  65
ATOM     65  CA  VAL A  10     -11.448  13.986  -8.592  0.00  0.00    +0.149 C 
BRANCH  65  66
ATOM     66  C   VAL A  10     -12.629  14.451  -7.742  0.00  0.00    +0.241 C 
ATOM     67  N   ILE A  11     -12.411  14.397  -6.449  0.00  0.00    -0.298 N 
ATOM     68  H   ILE A  11     -11.450  14.158  -6.131  0.00  0.00    +0.150 HD
ATOM     69  O   VAL A  10     -13.690  14.786  -8.255  0.00  0.00    -0.273 OA
BRANCH  67  70
ATOM     70  CA  ILE A  11     -13.429  14.650  -5.417  0.00  0.00    +0.137 C 
BRANCH  70  71
ATOM     71  CB  ILE A  11     -13.689  13.386  -4.585  0.00  0.00    +0.026 C 
ATOM     72  CG2 ILE A  11     -14.702  13.602  -3.495  0.00  0.00    +0.002 C 
BRANCH  71  73
ATOM     73  CG1 ILE A  11     -14.084  12.157  -5.448  0.00  0.00    +0.002 C 
ATOM     74  CD1 ILE A  11     -15.339  12.298  -6.245  0.00  0.00    +0.000 C 
ENDBRANCH  71  73
ENDBRANCH  70  71
BRANCH  70  75
ATOM     75  C   ILE A  11     -12.990  15.816  -4.537  0.00  0.00    +0.227 C 
ATOM     76  O   ILE A  11     -11.785  15.988  -4.313  0.00  0.00    -0.286 OA
ENDBRANCH  70  75
ENDBRANCH  67  70
ENDBRANCH  65  66
BRANCH  65  77
ATOM     77  CB  VAL A  10     -10.920  15.251  -9.293  0.00  0.00    +0.027 C 
ATOM     78  CG2 VAL A  10     -10.180  16.136  -8.286  0.00  0.00    +0.002 C 
ATOM     79  CG1 VAL A  10     -10.012  14.956 -10.476  0.00  0.00    +0.002 C 
ENDBRANCH  65  77
ENDBRANCH  63  65
ENDBRANCH  60  61
BRANCH  60  80
ATOM     80  CB  THR A   9     -12.338   9.632 -10.091  0.00  0.00    +0.137 C 
ATOM     81  CG2 THR A   9     -13.378   9.888  -9.025  0.00  0.00    +0.034 C 
BRANCH  80  82
ATOM     82  OG1 THR A   9     -12.985   8.828 -11.135  0.00  0.00    -0.382 OA
ATOM     83  HG1 THR A   9     -13.350   8.000 -10.733  0.00  0.00    +0.210 HD
ENDBRANCH  80  82
ENDBRANCH  60  80
ENDBRANCH  57  60
ENDBRANCH  55  56
BRANCH  55  84
ATOM     84  CB  ASP A   8      -7.943  10.333 -12.721  0.00  0.00    +0.143 C 
BRANCH  84  85
ATOM     85  CG  ASP A   8      -6.936   9.379 -13.335  0.00  0.00    +0.367 C 
ATOM     86  OD2 ASP A   8      -7.158   8.149 -13.328  0.00  0.00    -0.246 OA
ATOM     87  OD1 ASP A   8      -5.925   9.927 -13.819  0.00  0.00    -0.246 OA
ENDBRANCH  84  85
ENDBRANCH  55  84
ENDBRANCH  52  55
ENDBRANCH  50  51
BRANCH  50  88
ATOM     88  CB  ASP A   7      -7.334  11.490 -17.365  0.00  0.00    +0.143 C 
BRANCH  88  89
ATOM     89  CG  ASP A   7      -6.851  12.131 -18.648  0.00  0.00    +0.367 C 
ATOM     90  OD2 ASP A   7      -5.756  12.762 -18.657  0.00  0.00    -0.246 OA
ATOM     91  OD1 ASP A   7      -7.561  11.999 -19.661  0.00  0.00    -0.246 OA
ENDBRANCH  88  89
ENDBRANCH  50  88
ENDBRANCH   3  50
TORSDOF 39
REMARK  Name = ../refined-set-2016/3cyw/3cyw_pocket.pdb
REMARK  231 active torsions:
REMARK  status: ('A' for Active; 'I' for Inactive)
REMARK    1  A    between atoms: _1  and  _3
REMARK    2  A    between atoms: _3  and  _4
REMARK    3  A    between atoms: _3  and  _6
REMARK    4  A    between atoms: _6  and  _7
REMARK    5  A    between atoms: _7  and  _8
REMARK    6  A    between atoms: _8  and  _9
REMARK    7  A    between atoms: _18  and  _20
REMARK    8  A    between atoms: _20  and  _21
REMARK    9  A    between atoms: _20  and  _23
REMARK   10  A    between atoms: _23  and  _24
REMARK   11  A    between atoms: _27  and  _29
REMARK   12  A    between atoms: _29  and  _30
REMARK   13  A    between atoms: _29  and  _32
REMARK   14  A    between atoms: _32  and  _33
REMARK   15  A    between atoms: _36  and  _38
REMARK   16  A    between atoms: _38  and  _39
REMARK   17  A    between atoms: _38  and  _41
REMARK   18  A    between atoms: _41  and  _42
REMARK   19  A    between atoms: _45  and  _47
REMARK   20  A    between atoms: _47  and  _48
REMARK   21  A    between atoms: _47  and  _50
REMARK   22  A    between atoms: _50  and  _51
REMARK   23  A    between atoms: _54  and  _56
REMARK   24  A    between atoms: _56  and  _57
REMARK   25  A    between atoms: _59  and  _61
REMARK   26  A    between atoms: _61  and  _62
REMARK   27  A    between atoms: _65  and  _67
REMARK   28  A    between atoms: _67  and  _68
REMARK   29  A    between atoms: _67  and  _70
REMARK   30  A    between atoms: _70  and  _71
REMARK   31  A    between atoms: _74  and  _76
REMARK   32  A    between atoms: _76  and  _77
REMARK   33  A    between atoms: _76  and  _79
REMARK   34  A    between atoms: _79  and  _80
REMARK   35  A    between atoms: _83  and  _85
REMARK   36  A    between atoms: _85  and  _86
REMARK   37  A    between atoms: _85  and  _88
REMARK   38  A    between atoms: _88  and  _89
REMARK   39  A    between atoms: _92  and  _94
REMARK   40  A    between atoms: _94  and  _95
REMARK   41  A    between atoms: _94  and  _97
REMARK   42  A    between atoms: _100  and  _102
REMARK   43  A    between atoms: _102  and  _103
REMARK   44  A    between atoms: _102  and  _105
REMARK   45  A    between atoms: _105  and  _106
REMARK   46  A    between atoms: _109  and  _111
REMARK   47  A    between atoms: _111  and  _112
REMARK   48  A    between atoms: _111  and  _114
REMARK   49  A    between atoms: _115  and  _116
REMARK   50  A    between atoms: _116  and  _117
REMARK   51  A    between atoms: _117  and  _118
REMARK   52  A    between atoms: _122  and  _124
REMARK   53  A    between atoms: _124  and  _125
REMARK   54  A    between atoms: _124  and  _127
REMARK   55  A    between atoms: _127  and  _128
REMARK   56  A    between atoms: _128  and  _129
REMARK   57  A    between atoms: _131  and  _133
REMARK   58  A    between atoms: _133  and  _134
REMARK   59  A    between atoms: _133  and  _136
REMARK   60  A    between atoms: _136  and  _137
REMARK   61  A    between atoms: _140  and  _142
REMARK   62  A    between atoms: _142  and  _143
REMARK   63  A    between atoms: _142  and  _145
REMARK   64  A    between atoms: _148  and  _150
REMARK   65  A    between atoms: _150  and  _151
REMARK   66  A    between atoms: _153  and  _155
REMARK   67  A    between atoms: _155  and  _156
REMARK   68  A    between atoms: _155  and  _158
REMARK   69  A    between atoms: _158  and  _159
REMARK   70  A    between atoms: _162  and  _164
REMARK   71  A    between atoms: _164  and  _165
REMARK   72  A    between atoms: _167  and  _169
REMARK   73  A    between atoms: _169  and  _170
REMARK   74  A    between atoms: _172  and  _174
REMARK   75  A    between atoms: _174  and  _175
REMARK   76  A    between atoms: _174  and  _177
REMARK   77  A    between atoms: _177  and  _178
REMARK   78  A    between atoms: _184  and  _186
REMARK   79  A    between atoms: _186  and  _187
REMARK   80  A    between atoms: _186  and  _189
REMARK   81  A    between atoms: _189  and  _190
REMARK   82  A    between atoms: _193  and  _195
REMARK   83  A    between atoms: _195  and  _196
REMARK   84  A    between atoms: _195  and  _198
REMARK   85  A    between atoms: _201  and  _203
REMARK   86  A    between atoms: _203  and  _204
REMARK   87  A    between atoms: _203  and  _206
REMARK   88  A    between atoms: _206  and  _207
REMARK   89  A    between atoms: _211  and  _212
REMARK   90  A    between atoms: _217  and  _219
REMARK   91  A    between atoms: _219  and  _220
REMARK   92  A    between atoms: _219  and  _222
REMARK   93  A    between atoms: _222  and  _223
REMARK   94  A    between atoms: _227  and  _228
REMARK   95  A    between atoms: _233  and  _235
REMARK   96  A    between atoms: _235  and  _236
REMARK   97  A    between atoms: _235  and  _238
REMARK   98  A    between atoms: _241  and  _243
REMARK   99  A    between atoms: _243  and  _244
REMARK  100  A    between atoms: _243  and  _246
REMARK  101  A    between atoms: _246  and  _247
REMARK  102  A    between atoms: _252  and  _254
REMARK  103  A    between atoms: _254  and  _255
REMARK  104  A    between atoms: _254  and  _257
REMARK  105  A    between atoms: _257  and  _258
REMARK  106  A    between atoms: _261  and  _263
REMARK  107  A    between atoms: _263  and  _264
REMARK  108  A    between atoms: _263  and  _266
REMARK  109  A    between atoms: _266  and  _267
REMARK  110  A    between atoms: _270  and  _272
REMARK  111  A    between atoms: _272  and  _273
REMARK  112  A    between atoms: _275  and  _277
REMARK  113  A    between atoms: _277  and  _278
REMARK  114  A    between atoms: _277  and  _280
REMARK  115  A    between atoms: _280  and  _281
REMARK  116  A    between atoms: _281  and  _282
REMARK  117  A    between atoms: _282  and  _283
REMARK  118  A    between atoms: _292  and  _294
REMARK  119  A    between atoms: _294  and  _295
REMARK  120  A    between atoms: _294  and  _297
REMARK  121  A    between atoms: _297  and  _298
REMARK  122  A    between atoms: _303  and  _305
REMARK  123  A    between atoms: _305  and  _306
REMARK  124  A    between atoms: _305  and  _308
REMARK  125  A    between atoms: _308  and  _309
REMARK  126  A    between atoms: _309  and  _310
REMARK  127  A    between atoms: _310  and  _311
REMARK  128  A    between atoms: _320  and  _322
REMARK  129  A    between atoms: _322  and  _323
REMARK  130  A    between atoms: _322  and  _325
REMARK  131  A    between atoms: _325  and  _326
REMARK  132  A    between atoms: _329  and  _331
REMARK  133  A    between atoms: _331  and  _332
REMARK  134  A    between atoms: _331  and  _334
REMARK  135  A    between atoms: _334  and  _335
REMARK  136  A    between atoms: _338  and  _340
REMARK  137  A    between atoms: _340  and  _341
REMARK  138  A    between atoms: _340  and  _343
REMARK  139  A    between atoms: _343  and  _344
REMARK  140  A    between atoms: _347  and  _349
REMARK  141  A    between atoms: _349  and  _350
REMARK  142  A    between atoms: _349  and  _352
REMARK  143  A    between atoms: _352  and  _353
REMARK  144  A    between atoms: _356  and  _358
REMARK  145  A    between atoms: _358  and  _359
REMARK  146  A    between atoms: _361  and  _363
REMARK  147  A    between atoms: _363  and  _364
REMARK  148  A    between atoms: _367  and  _369
REMARK  149  A    between atoms: _369  and  _370
REMARK  150  A    between atoms: _369  and  _372
REMARK  151  A    between atoms: _372  and  _373
REMARK  152  A    between atoms: _376  and  _378
REMARK  153  A    between atoms: _378  and  _379
REMARK  154  A    between atoms: _378  and  _381
REMARK  155  A    between atoms: _381  and  _382
REMARK  156  A    between atoms: _385  and  _387
REMARK  157  A    between atoms: _387  and  _388
REMARK  158  A    between atoms: _387  and  _390
REMARK  159  A    between atoms: _390  and  _391
REMARK  160  A    between atoms: _394  and  _396
REMARK  161  A    between atoms: _396  and  _397
REMARK  162  A    between atoms: _396  and  _399
REMARK  163  A    between atoms: _402  and  _404
REMARK  164  A    between atoms: _404  and  _405
REMARK  165  A    between atoms: _404  and  _407
REMARK  166  A    between atoms: _407  and  _408
REMARK  167  A    between atoms: _408  and  _409
REMARK  168  A    between atoms: _409  and  _410
REMARK  169  A    between atoms: _410  and  _411
REMARK  170  A    between atoms: _415  and  _417
REMARK  171  A    between atoms: _417  and  _418
REMARK  172  A    between atoms: _417  and  _420
REMARK  173  A    between atoms: _420  and  _421
REMARK  174  A    between atoms: _421  and  _422
REMARK  175  A    between atoms: _424  and  _426
REMARK  176  A    between atoms: _426  and  _427
REMARK  177  A    between atoms: _426  and  _429
REMARK  178  A    between atoms: _429  and  _430
REMARK  179  A    between atoms: _433  and  _435
REMARK  180  A    between atoms: _435  and  _436
REMARK  181  A    between atoms: _435  and  _438
REMARK  182  A    between atoms: _441  and  _443
REMARK  183  A    between atoms: _443  and  _444
REMARK  184  A    between atoms: _446  and  _448
REMARK  185  A    between atoms: _448  and  _449
REMARK  186  A    between atoms: _448  and  _451
REMARK  187  A    between atoms: _451  and  _452
REMARK  188  A    between atoms: _455  and  _457
REMARK  189  A    between atoms: _457  and  _458
REMARK  190  A    between atoms: _460  and  _462
REMARK  191  A    between atoms: _462  and  _463
REMARK  192  A    between atoms: _465  and  _467
REMARK  193  A    between atoms: _467  and  _468
REMARK  194  A    between atoms: _467  and  _470
REMARK  195  A    between atoms: _470  and  _471
REMARK  196  A    between atoms: _474  and  _476
REMARK  197  A    between atoms: _476  and  _477
REMARK  198  A    between atoms: _476  and  _479
REMARK  199  A    between atoms: _479  and  _480
REMARK  200  A    between atoms: _483  and  _485
REMARK  201  A    between atoms: _485  and  _486
REMARK  202  A    between atoms: _485  and  _488
REMARK  203  A    between atoms: _488  and  _489
REMARK  204  A    between atoms: _493  and  _494
REMARK  205  A    between atoms: _499  and  _501
REMARK  206  A    between atoms: _501  and  _502
REMARK  207  A    between atoms: _501  and  _504
REMARK  208  A    between atoms: _507  and  _509
REMARK  209  A    between atoms: _509  and  _510
REMARK  210  A    between atoms: _509  and  _512
REMARK  211  A    between atoms: _512  and  _513
REMARK  212  A    between atoms: _518  and  _520
REMARK  213  A    between atoms: _520  and  _521
REMARK  214  A    between atoms: _520  and  _523
REMARK  215  A    between atoms: _523  and  _524
REMARK  216  A    between atoms: _527  and  _529
REMARK  217  A    between atoms: _529  and  _530
REMARK  218  A    between atoms: _529  and  _532
REMARK  219  A    between atoms: _532  and  _533
REMARK  220  A    between atoms: _536  and  _538
REMARK  221  A    between atoms: _538  and  _539
REMARK  222  A    between atoms: _541  and  _543
REMARK  223  A    between atoms: _543  and  _544
REMARK  224  A    between atoms: _543  and  _546
REMARK  225  A    between atoms: _546  and  _547
REMARK  226  A    between atoms: _547  and  _548
REMARK  227  A    between atoms: _548  and  _549
REMARK  228  A    between atoms: _558  and  _560
REMARK  229  A    between atoms: _560  and  _561
REMARK  230  A    between atoms: _560  and  _563
REMARK  231  A    between atoms: _563  and  _564
REMARK                            x       y       z     vdW  Elec       q    Type
REMARK                         _______ _______ _______ _____ _____    ______ ____
ROOT
ATOM      1  CA  GLY A   5      -8.230  21.983 -16.550  0.00  0.00    +0.176 C 
ENDROOT
BRANCH   1   2
ATOM      2  C   GLY A   5      -8.300  23.429 -17.038  0.00  0.00    +0.243 C 
ATOM      3  O   GLY A   5      -7.285  24.092 -17.202  0.00  0.00    -0.273 OA
ATOM      4  N   ILE A   6      -9.511  23.872 -17.320  0.00  0.00    -0.297 N 
ATOM      5  H   ILE A   6     -10.309  23.209 -17.247  0.00  0.00    +0.150 HD
BRANCH   4   6
ATOM      6  CA  ILE A   6      -9.784  25.238 -17.727  0.00  0.00    +0.149 C 
BRANCH   6   7
ATOM      7  C   ILE A   6      -9.403  26.078 -16.510  0.00  0.00    +0.241 C 
ATOM      8  O   ILE A   6      -9.835  25.792 -15.367  0.00  0.00    -0.273 OA
ATOM      9  N   GLY A   7      -8.587  27.056 -16.724  0.00  0.00    -0.295 N 
ATOM     10  H   GLY A   7      -8.277  27.297 -17.687  0.00  0.00    +0.150 HD
BRANCH   9  11
ATOM     11  CA  GLY A   7      -8.118  27.808 -15.574  0.00  0.00    +0.176 C 
BRANCH  11  12
ATOM     12  C   GLY A   7      -6.780  27.416 -15.057  0.00  0.00    +0.243 C 
ATOM     13  O   GLY A   7      -6.185  28.183 -14.283  0.00  0.00    -0.273 OA
ATOM     14  N   GLY A   8      -6.248  26.296 -15.476  0.00  0.00    -0.295 N 
ATOM     15  H   GLY A   8      -6.777  25.667 -16.113  0.00  0.00    +0.150 HD
BRANCH  14  16
ATOM     16  CA  GLY A   8      -4.908  25.942 -15.039  0.00  0.00    +0.176 C 
BRANCH  16  17
ATOM     17  C   GLY A   8      -4.889  24.696 -14.183  0.00  0.00    +0.243 C 
ATOM     18  N   PHE A   9      -3.855  24.603 -13.358  0.00  0.00    -0.297 N 
ATOM     19  H   PHE A   9      -3.195  25.404 -13.291  0.00  0.00    +0.150 HD
ATOM     20  O   GLY A   8      -5.769  23.827 -14.231  0.00  0.00    -0.273 OA
BRANCH  18  21
ATOM     21  CA  PHE A   9      -3.612  23.430 -12.549  0.00  0.00    +0.153 C 
BRANCH  21  22
ATOM     22  C   PHE A   9      -4.110  23.508 -11.130  0.00  0.00    +0.241 C 
ATOM     23  N   ILE A  10      -4.428  22.365 -10.549  0.00  0.00    -0.298 N 
ATOM     24  H   ILE A  10      -4.558  21.520 -11.142  0.00  0.00    +0.150 HD
ATOM     25  O   PHE A   9      -4.155  24.604 -10.559  0.00  0.00    -0.273 OA
BRANCH  23  26
ATOM     26  CA  ILE A  10      -4.601  22.247  -9.127  0.00  0.00    +0.137 C 
BRANCH  26  27
ATOM     27  C   ILE A  10      -3.776  21.046  -8.610  0.00  0.00    +0.227 C 
ATOM     28  O   ILE A  10      -3.526  20.124  -9.362  0.00  0.00    -0.286 OA
ENDBRANCH  26  27
BRANCH  26  29
ATOM     29  CB  ILE A  10      -6.057  22.082  -8.649  0.00  0.00    +0.026 C 
ATOM     30  CG2 ILE A  10      -6.879  23.290  -9.057  0.00  0.00    +0.002 C 
BRANCH  29  31
ATOM     31  CG1 ILE A  10      -6.720  20.766  -9.076  0.00  0.00    +0.002 C 
ATOM     32  CD1 ILE A  10      -8.004  20.432  -8.315  0.00  0.00    +0.000 C 
ENDBRANCH  29  31
ENDBRANCH  26  29
ENDBRANCH  23  26
ENDBRANCH  21  22
BRANCH  21  33
ATOM     33  CB  PHE A   9      -2.087  23.200 -12.420  0.00  0.00    +0.055 C 
BRANCH  33  34
ATOM     34  CG  PHE A   9      -1.451  22.793 -13.738  0.00  0.00    -0.020 A 
ATOM     35  CD2 PHE A   9      -1.227  21.478 -14.045  0.00  0.00    -0.004 A 
ATOM     36  CE2 PHE A   9      -0.675  21.161 -15.263  0.00  0.00    -0.000 A 
ATOM     37  CZ  PHE A   9      -0.287  22.100 -16.182  0.00  0.00    -0.000 A 
ATOM     38  CE1 PHE A   9      -0.492  23.409 -15.848  0.00  0.00    -0.000 A 
ATOM     39  CD1 PHE A   9      -1.073  23.760 -14.664  0.00  0.00    -0.004 A 
ENDBRANCH  33  34
ENDBRANCH  21  33
ENDBRANCH  18  21
ENDBRANCH  16  17
ENDBRANCH  14  16
ENDBRANCH  11  12
ENDBRANCH   9  11
ENDBRANCH   6   7
BRANCH   6  40
ATOM     40  CB  ILE A   6     -11.245  25.510 -18.086  0.00  0.00    +0.027 C 
ATOM     41  CG2 ILE A   6     -11.521  26.995 -18.305  0.00  0.00    +0.002 C 
BRANCH  40  42
ATOM     42  CG1 ILE A   6     -11.756  24.709 -19.280  0.00  0.00    +0.002 C 
ATOM     43  CD1 ILE A   6     -11.406  25.236 -20.625  0.00  0.00    +0.000 C 
ENDBRANCH  40  42
ENDBRANCH   6  40
ENDBRANCH   4   6
ENDBRANCH   1   2
BRANCH   1  45
ATOM     44  C   VAL A   4      -6.365  20.550 -15.989  0.00  0.00    +0.241 C 
ATOM     45  N   GLY A   5      -6.962  21.729 -15.893  0.00  0.00    -0.295 N 
ATOM     46  H   GLY A   5      -6.514  22.485 -15.337  0.00  0.00    +0.150 HD
ATOM     47  O   VAL A   4      -6.922  19.596 -16.537  0.00  0.00    -0.273 OA
BRANCH  44  48
ATOM     48  CA  VAL A   4      -4.981  20.544 -15.367  0.00  0.00    +0.149 C 
BRANCH  48  51
ATOM     49  C   ILE A   3      -4.324  19.405 -13.320  0.00  0.00    +0.241 C 
ATOM     50  O   ILE A   3      -4.292  20.429 -12.636  0.00  0.00    -0.273 OA
ATOM     51  N   VAL A   4      -4.670  19.363 -14.610  0.00  0.00    -0.297 N 
ATOM     52  H   VAL A   4      -4.716  18.439 -15.085  0.00  0.00    +0.150 HD
BRANCH  49  53
ATOM     53  CA  ILE A   3      -3.932  18.047 -12.738  0.00  0.00    +0.149 C 
BRANCH  53  55
ATOM     54  C   MET A   2      -1.866  17.776 -11.442  0.00  0.00    +0.241 C 
ATOM     55  N   ILE A   3      -3.064  18.303 -11.590  0.00  0.00    -0.297 N 
ATOM     56  H   ILE A   3      -3.413  18.939 -10.845  0.00  0.00    +0.150 HD
ATOM     57  O   MET A   2      -1.429  16.916 -12.222  0.00  0.00    -0.273 OA
BRANCH  54  58
ATOM     58  CA  MET A   2      -0.973  18.246 -10.287  0.00  0.00    +0.149 C 
BRANCH  58  61
ATOM     59  C   LYS A   1      -0.604  16.581  -8.538  0.00  0.00    +0.243 C 
ATOM     60  O   LYS A   1      -1.376  17.188  -7.756  0.00  0.00    -0.273 OA
ATOM     61  N   MET A   2      -0.288  17.113  -9.709  0.00  0.00    -0.297 N 
ATOM     62  H   MET A   2       0.498  16.691 -10.243  0.00  0.00    +0.150 HD
BRANCH  59  63
ATOM     63  CA  LYS A   1      -0.048  15.243  -8.101  0.00  0.00    +0.167 C 
BRANCH  63  64
ATOM     64  N   LYS A   1      -0.065  15.172  -6.645  0.00  0.00    -0.234 NA
ATOM     65  H   LYS A   1      -0.761  15.729  -6.109  0.00  0.00    +0.142 HD
ENDBRANCH  63  64
BRANCH  63  66
ATOM     66  CB  LYS A   1      -0.875  14.037  -8.569  0.00  0.00    -0.005 C 
ATOM     67  CG  LYS A   1      -1.376  14.036  -9.945  0.00  0.00    -0.031 C 
BRANCH  67  68
ATOM     68  CD  LYS A   1      -2.142  12.831 -10.427  0.00  0.00    +0.002 C 
BRANCH  68  69
ATOM     69  CE  LYS A   1      -1.882  12.660 -11.936  0.00  0.00    -0.081 C 
BRANCH  69  70
ATOM     70  NZ  LYS A   1      -2.847  11.669 -12.458  0.00  0.00    +0.381 N 
ATOM     71  HZ1 LYS A   1      -2.712  10.763 -11.965  0.00  0.00    -0.089 HD
ATOM     72  HZ2 LYS A   1      -3.816  12.012 -12.297  0.00  0.00    -0.089 HD
ATOM     73  HZ3 LYS A   1      -2.690  11.537 -13.478  0.00  0.00    -0.089 HD
ENDBRANCH  69  70
ENDBRANCH  68  69
ENDBRANCH  67  68
ENDBRANCH  63  66
ENDBRANCH  59  63
ENDBRANCH  58  61
BRANCH  58  74
ATOM     74  CB  MET A   2       0.013  19.273 -10.835  0.00  0.00    +0.041 C 
BRANCH  74  75
ATOM     75  CG  MET A   2       0.913  19.813  -9.754  0.00  0.00    +0.060 C 
BRANCH  75  76
ATOM     76  SD  MET A   2       0.027  21.078  -8.845  0.00  0.00    -0.139 S 
ATOM     77  CE  MET A   2       0.482  22.501  -9.872  0.00  0.00    +0.069 C 
ENDBRANCH  75  76
ENDBRANCH  74  75
ENDBRANCH  58  74
ENDBRANCH  54  58
ENDBRANCH  53  55
BRANCH  53  78
ATOM     78  CB  ILE A   3      -5.186  17.225 -12.394  0.00  0.00    +0.027 C 
ATOM     79  CG2 ILE A   3      -4.804  15.810 -12.012  0.00  0.00    +0.002 C 
BRANCH  78  80
ATOM     80  CG1 ILE A   3      -6.028  17.903 -11.316  0.00  0.00    +0.002 C 
ATOM     81  CD1 ILE A   3      -7.306  17.230 -10.887  0.00  0.00    +0.000 C 
ENDBRANCH  78  80
ENDBRANCH  53  78
ENDBRANCH  49  53
ENDBRANCH  48  51
BRANCH  48  82
ATOM     82  CB  VAL A   4      -3.948  20.757 -16.489  0.00  0.00    +0.027 C 
ATOM     83  CG2 VAL A   4      -4.085  22.181 -16.995  0.00  0.00    +0.002 C 
ATOM     84  CG1 VAL A   4      -4.130  19.717 -17.582  0.00  0.00    +0.002 C 
ENDBRANCH  48  82
ENDBRANCH  44  48
ENDBRANCH   1  45
TORSDOF 36
REMARK  Name = ../refined-set-2016/3cyw/3cyw_pocket.pdb
REMARK  231 active torsions:
REMARK  status: ('A' for Active; 'I' for Inactive)
REMARK    1  A    between atoms: _1  and  _3
REMARK    2  A    between atoms: _3  and  _4
REMARK    3  A    between atoms: _3  and  _6
REMARK    4  A    between atoms: _6  and  _7
REMARK    5  A    between atoms: _7  and  _8
REMARK    6  A    between atoms: _8  and  _9
REMARK    7  A    between atoms: _18  and  _20
REMARK    8  A    between atoms: _20  and  _21
REMARK    9  A    between atoms: _20  and  _23
REMARK   10  A    between atoms: _23  and  _24
REMARK   11  A    between atoms: _27  and  _29
REMARK   12  A    between atoms: _29  and  _30
REMARK   13  A    between atoms: _29  and  _32
REMARK   14  A    between atoms: _32  and  _33
REMARK   15  A    between atoms: _36  and  _38
REMARK   16  A    between atoms: _38  and  _39
REMARK   17  A    between atoms: _38  and  _41
REMARK   18  A    between atoms: _41  and  _42
REMARK   19  A    between atoms: _45  and  _47
REMARK   20  A    between atoms: _47  and  _48
REMARK   21  A    between atoms: _47  and  _50
REMARK   22  A    between atoms: _50  and  _51
REMARK   23  A    between atoms: _54  and  _56
REMARK   24  A    between atoms: _56  and  _57
REMARK   25  A    between atoms: _59  and  _61
REMARK   26  A    between atoms: _61  and  _62
REMARK   27  A    between atoms: _65  and  _67
REMARK   28  A    between atoms: _67  and  _68
REMARK   29  A    between atoms: _67  and  _70
REMARK   30  A    between atoms: _70  and  _71
REMARK   31  A    between atoms: _74  and  _76
REMARK   32  A    between atoms: _76  and  _77
REMARK   33  A    between atoms: _76  and  _79
REMARK   34  A    between atoms: _79  and  _80
REMARK   35  A    between atoms: _83  and  _85
REMARK   36  A    between atoms: _85  and  _86
REMARK   37  A    between atoms: _85  and  _88
REMARK   38  A    between atoms: _88  and  _89
REMARK   39  A    between atoms: _92  and  _94
REMARK   40  A    between atoms: _94  and  _95
REMARK   41  A    between atoms: _94  and  _97
REMARK   42  A    between atoms: _100  and  _102
REMARK   43  A    between atoms: _102  and  _103
REMARK   44  A    between atoms: _102  and  _105
REMARK   45  A    between atoms: _105  and  _106
REMARK   46  A    between atoms: _109  and  _111
REMARK   47  A    between atoms: _111  and  _112
REMARK   48  A    between atoms: _111  and  _114
REMARK   49  A    between atoms: _115  and  _116
REMARK   50  A    between atoms: _116  and  _117
REMARK   51  A    between atoms: _117  and  _118
REMARK   52  A    between atoms: _122  and  _124
REMARK   53  A    between atoms: _124  and  _125
REMARK   54  A    between atoms: _124  and  _127
REMARK   55  A    between atoms: _127  and  _128
REMARK   56  A    between atoms: _128  and  _129
REMARK   57  A    between atoms: _131  and  _133
REMARK   58  A    between atoms: _133  and  _134
REMARK   59  A    between atoms: _133  and  _136
REMARK   60  A    between atoms: _136  and  _137
REMARK   61  A    between atoms: _140  and  _142
REMARK   62  A    between atoms: _142  and  _143
REMARK   63  A    between atoms: _142  and  _145
REMARK   64  A    between atoms: _148  and  _150
REMARK   65  A    between atoms: _150  and  _151
REMARK   66  A    between atoms: _153  and  _155
REMARK   67  A    between atoms: _155  and  _156
REMARK   68  A    between atoms: _155  and  _158
REMARK   69  A    between atoms: _158  and  _159
REMARK   70  A    between atoms: _162  and  _164
REMARK   71  A    between atoms: _164  and  _165
REMARK   72  A    between atoms: _167  and  _169
REMARK   73  A    between atoms: _169  and  _170
REMARK   74  A    between atoms: _172  and  _174
REMARK   75  A    between atoms: _174  and  _175
REMARK   76  A    between atoms: _174  and  _177
REMARK   77  A    between atoms: _177  and  _178
REMARK   78  A    between atoms: _184  and  _186
REMARK   79  A    between atoms: _186  and  _187
REMARK   80  A    between atoms: _186  and  _189
REMARK   81  A    between atoms: _189  and  _190
REMARK   82  A    between atoms: _193  and  _195
REMARK   83  A    between atoms: _195  and  _196
REMARK   84  A    between atoms: _195  and  _198
REMARK   85  A    between atoms: _201  and  _203
REMARK   86  A    between atoms: _203  and  _204
REMARK   87  A    between atoms: _203  and  _206
REMARK   88  A    between atoms: _206  and  _207
REMARK   89  A    between atoms: _211  and  _212
REMARK   90  A    between atoms: _217  and  _219
REMARK   91  A    between atoms: _219  and  _220
REMARK   92  A    between atoms: _219  and  _222
REMARK   93  A    between atoms: _222  and  _223
REMARK   94  A    between atoms: _227  and  _228
REMARK   95  A    between atoms: _233  and  _235
REMARK   96  A    between atoms: _235  and  _236
REMARK   97  A    between atoms: _235  and  _238
REMARK   98  A    between atoms: _241  and  _243
REMARK   99  A    between atoms: _243  and  _244
REMARK  100  A    between atoms: _243  and  _246
REMARK  101  A    between atoms: _246  and  _247
REMARK  102  A    between atoms: _252  and  _254
REMARK  103  A    between atoms: _254  and  _255
REMARK  104  A    between atoms: _254  and  _257
REMARK  105  A    between atoms: _257  and  _258
REMARK  106  A    between atoms: _261  and  _263
REMARK  107  A    between atoms: _263  and  _264
REMARK  108  A    between atoms: _263  and  _266
REMARK  109  A    between atoms: _266  and  _267
REMARK  110  A    between atoms: _270  and  _272
REMARK  111  A    between atoms: _272  and  _273
REMARK  112  A    between atoms: _275  and  _277
REMARK  113  A    between atoms: _277  and  _278
REMARK  114  A    between atoms: _277  and  _280
REMARK  115  A    between atoms: _280  and  _281
REMARK  116  A    between atoms: _281  and  _282
REMARK  117  A    between atoms: _282  and  _283
REMARK  118  A    between atoms: _292  and  _294
REMARK  119  A    between atoms: _294  and  _295
REMARK  120  A    between atoms: _294  and  _297
REMARK  121  A    between atoms: _297  and  _298
REMARK  122  A    between atoms: _303  and  _305
REMARK  123  A    between atoms: _305  and  _306
REMARK  124  A    between atoms: _305  and  _308
REMARK  125  A    between atoms: _308  and  _309
REMARK  126  A    between atoms: _309  and  _310
REMARK  127  A    between atoms: _310  and  _311
REMARK  128  A    between atoms: _320  and  _322
REMARK  129  A    between atoms: _322  and  _323
REMARK  130  A    between atoms: _322  and  _325
REMARK  131  A    between atoms: _325  and  _326
REMARK  132  A    between atoms: _329  and  _331
REMARK  133  A    between atoms: _331  and  _332
REMARK  134  A    between atoms: _331  and  _334
REMARK  135  A    between atoms: _334  and  _335
REMARK  136  A    between atoms: _338  and  _340
REMARK  137  A    between atoms: _340  and  _341
REMARK  138  A    between atoms: _340  and  _343
REMARK  139  A    between atoms: _343  and  _344
REMARK  140  A    between atoms: _347  and  _349
REMARK  141  A    between atoms: _349  and  _350
REMARK  142  A    between atoms: _349  and  _352
REMARK  143  A    between atoms: _352  and  _353
REMARK  144  A    between atoms: _356  and  _358
REMARK  145  A    between atoms: _358  and  _359
REMARK  146  A    between atoms: _361  and  _363
REMARK  147  A    between atoms: _363  and  _364
REMARK  148  A    between atoms: _367  and  _369
REMARK  149  A    between atoms: _369  and  _370
REMARK  150  A    between atoms: _369  and  _372
REMARK  151  A    between atoms: _372  and  _373
REMARK  152  A    between atoms: _376  and  _378
REMARK  153  A    between atoms: _378  and  _379
REMARK  154  A    between atoms: _378  and  _381
REMARK  155  A    between atoms: _381  and  _382
REMARK  156  A    between atoms: _385  and  _387
REMARK  157  A    between atoms: _387  and  _388
REMARK  158  A    between atoms: _387  and  _390
REMARK  159  A    between atoms: _390  and  _391
REMARK  160  A    between atoms: _394  and  _396
REMARK  161  A    between atoms: _396  and  _397
REMARK  162  A    between atoms: _396  and  _399
REMARK  163  A    between atoms: _402  and  _404
REMARK  164  A    between atoms: _404  and  _405
REMARK  165  A    between atoms: _404  and  _407
REMARK  166  A    between atoms: _407  and  _408
REMARK  167  A    between atoms: _408  and  _409
REMARK  168  A    between atoms: _409  and  _410
REMARK  169  A    between atoms: _410  and  _411
REMARK  170  A    between atoms: _415  and  _417
REMARK  171  A    between atoms: _417  and  _418
REMARK  172  A    between atoms: _417  and  _420
REMARK  173  A    between atoms: _420  and  _421
REMARK  174  A    between atoms: _421  and  _422
REMARK  175  A    between atoms: _424  and  _426
REMARK  176  A    between atoms: _426  and  _427
REMARK  177  A    between atoms: _426  and  _429
REMARK  178  A    between atoms: _429  and  _430
REMARK  179  A    between atoms: _433  and  _435
REMARK  180  A    between atoms: _435  and  _436
REMARK  181  A    between atoms: _435  and  _438
REMARK  182  A    between atoms: _441  and  _443
REMARK  183  A    between atoms: _443  and  _444
REMARK  184  A    between atoms: _446  and  _448
REMARK  185  A    between atoms: _448  and  _449
REMARK  186  A    between atoms: _448  and  _451
REMARK  187  A    between atoms: _451  and  _452
REMARK  188  A    between atoms: _455  and  _457
REMARK  189  A    between atoms: _457  and  _458
REMARK  190  A    between atoms: _460  and  _462
REMARK  191  A    between atoms: _462  and  _463
REMARK  192  A    between atoms: _465  and  _467
REMARK  193  A    between atoms: _467  and  _468
REMARK  194  A    between atoms: _467  and  _470
REMARK  195  A    between atoms: _470  and  _471
REMARK  196  A    between atoms: _474  and  _476
REMARK  197  A    between atoms: _476  and  _477
REMARK  198  A    between atoms: _476  and  _479
REMARK  199  A    between atoms: _479  and  _480
REMARK  200  A    between atoms: _483  and  _485
REMARK  201  A    between atoms: _485  and  _486
REMARK  202  A    between atoms: _485  and  _488
REMARK  203  A    between atoms: _488  and  _489
REMARK  204  A    between atoms: _493  and  _494
REMARK  205  A    between atoms: _499  and  _501
REMARK  206  A    between atoms: _501  and  _502
REMARK  207  A    between atoms: _501  and  _504
REMARK  208  A    between atoms: _507  and  _509
REMARK  209  A    between atoms: _509  and  _510
REMARK  210  A    between atoms: _509  and  _512
REMARK  211  A    between atoms: _512  and  _513
REMARK  212  A    between atoms: _518  and  _520
REMARK  213  A    between atoms: _520  and  _521
REMARK  214  A    between atoms: _520  and  _523
REMARK  215  A    between atoms: _523  and  _524
REMARK  216  A    between atoms: _527  and  _529
REMARK  217  A    between atoms: _529  and  _530
REMARK  218  A    between atoms: _529  and  _532
REMARK  219  A    between atoms: _532  and  _533
REMARK  220  A    between atoms: _536  and  _538
REMARK  221  A    between atoms: _538  and  _539
REMARK  222  A    between atoms: _541  and  _543
REMARK  223  A    between atoms: _543  and  _544
REMARK  224  A    between atoms: _543  and  _546
REMARK  225  A    between atoms: _546  and  _547
REMARK  226  A    between atoms: _547  and  _548
REMARK  227  A    between atoms: _548  and  _549
REMARK  228  A    between atoms: _558  and  _560
REMARK  229  A    between atoms: _560  and  _561
REMARK  230  A    between atoms: _560  and  _563
REMARK  231  A    between atoms: _563  and  _564
REMARK                            x       y       z     vdW  Elec       q    Type
REMARK                         _______ _______ _______ _____ _____    ______ ____
ROOT
ATOM      1  CA  VAL A   1      -4.432  16.996  -5.450  0.00  0.00    +0.133 C 
ENDROOT
BRANCH   1   2
ATOM      2  CB  VAL A   1      -5.306  16.330  -6.520  0.00  0.00    +0.023 C 
ATOM      3  CG2 VAL A   1      -6.200  17.336  -7.225  0.00  0.00    +0.002 C 
ATOM      4  CG1 VAL A   1      -4.451  15.592  -7.551  0.00  0.00    +0.002 C 
ENDBRANCH   1   2
BRANCH   1   5
ATOM      5  N   VAL A   1      -3.542  17.992  -6.027  0.00  0.00    -0.239 NA
ATOM      6  H   VAL A   1      -2.724  17.668  -6.581  0.00  0.00    +0.142 HD
ENDBRANCH   1   5
BRANCH   1   7
ATOM      7  C   VAL A   1      -3.607  15.933  -4.734  0.00  0.00    +0.224 C 
ATOM      8  O   VAL A   1      -2.404  15.773  -4.915  0.00  0.00    -0.287 OA
ENDBRANCH   1   7
TORSDOF 3
REMARK  Name = ../refined-set-2016/3cyw/3cyw_pocket.pdb
REMARK  231 active torsions:
REMARK  status: ('A' for Active; 'I' for Inactive)
REMARK    1  A    between atoms: _1  and  _3
REMARK    2  A    between atoms: _3  and  _4
REMARK    3  A    between atoms: _3  and  _6
REMARK    4  A    between atoms: _6  and  _7
REMARK    5  A    between atoms: _7  and  _8
REMARK    6  A    between atoms: _8  and  _9
REMARK    7  A    between atoms: _18  and  _20
REMARK    8  A    between atoms: _20  and  _21
REMARK    9  A    between atoms: _20  and  _23
REMARK   10  A    between atoms: _23  and  _24
REMARK   11  A    between atoms: _27  and  _29
REMARK   12  A    between atoms: _29  and  _30
REMARK   13  A    between atoms: _29  and  _32
REMARK   14  A    between atoms: _32  and  _33
REMARK   15  A    between atoms: _36  and  _38
REMARK   16  A    between atoms: _38  and  _39
REMARK   17  A    between atoms: _38  and  _41
REMARK   18  A    between atoms: _41  and  _42
REMARK   19  A    between atoms: _45  and  _47
REMARK   20  A    between atoms: _47  and  _48
REMARK   21  A    between atoms: _47  and  _50
REMARK   22  A    between atoms: _50  and  _51
REMARK   23  A    between atoms: _54  and  _56
REMARK   24  A    between atoms: _56  and  _57
REMARK   25  A    between atoms: _59  and  _61
REMARK   26  A    between atoms: _61  and  _62
REMARK   27  A    between atoms: _65  and  _67
REMARK   28  A    between atoms: _67  and  _68
REMARK   29  A    between atoms: _67  and  _70
REMARK   30  A    between atoms: _70  and  _71
REMARK   31  A    between atoms: _74  and  _76
REMARK   32  A    between atoms: _76  and  _77
REMARK   33  A    between atoms: _76  and  _79
REMARK   34  A    between atoms: _79  and  _80
REMARK   35  A    between atoms: _83  and  _85
REMARK   36  A    between atoms: _85  and  _86
REMARK   37  A    between atoms: _85  and  _88
REMARK   38  A    between atoms: _88  and  _89
REMARK   39  A    between atoms: _92  and  _94
REMARK   40  A    between atoms: _94  and  _95
REMARK   41  A    between atoms: _94  and  _97
REMARK   42  A    between atoms: _100  and  _102
REMARK   43  A    between atoms: _102  and  _103
REMARK   44  A    between atoms: _102  and  _105
REMARK   45  A    between atoms: _105  and  _106
REMARK   46  A    between atoms: _109  and  _111
REMARK   47  A    between atoms: _111  and  _112
REMARK   48  A    between atoms: _111  and  _114
REMARK   49  A    between atoms: _115  and  _116
REMARK   50  A    between atoms: _116  and  _117
REMARK   51  A    between atoms: _117  and  _118
REMARK   52  A    between atoms: _122  and  _124
REMARK   53  A    between atoms: _124  and  _125
REMARK   54  A    between atoms: _124  and  _127
REMARK   55  A    between atoms: _127  and  _128
REMARK   56  A    between atoms: _128  and  _129
REMARK   57  A    between atoms: _131  and  _133
REMARK   58  A    between atoms: _133  and  _134
REMARK   59  A    between atoms: _133  and  _136
REMARK   60  A    between atoms: _136  and  _137
REMARK   61  A    between atoms: _140  and  _142
REMARK   62  A    between atoms: _142  and  _143
REMARK   63  A    between atoms: _142  and  _145
REMARK   64  A    between atoms: _148  and  _150
REMARK   65  A    between atoms: _150  and  _151
REMARK   66  A    between atoms: _153  and  _155
REMARK   67  A    between atoms: _155  and  _156
REMARK   68  A    between atoms: _155  and  _158
REMARK   69  A    between atoms: _158  and  _159
REMARK   70  A    between atoms: _162  and  _164
REMARK   71  A    between atoms: _164  and  _165
REMARK   72  A    between atoms: _167  and  _169
REMARK   73  A    between atoms: _169  and  _170
REMARK   74  A    between atoms: _172  and  _174
REMARK   75  A    between atoms: _174  and  _175
REMARK   76  A    between atoms: _174  and  _177
REMARK   77  A    between atoms: _177  and  _178
REMARK   78  A    between atoms: _184  and  _186
REMARK   79  A    between atoms: _186  and  _187
REMARK   80  A    between atoms: _186  and  _189
REMARK   81  A    between atoms: _189  and  _190
REMARK   82  A    between atoms: _193  and  _195
REMARK   83  A    between atoms: _195  and  _196
REMARK   84  A    between atoms: _195  and  _198
REMARK   85  A    between atoms: _201  and  _203
REMARK   86  A    between atoms: _203  and  _204
REMARK   87  A    between atoms: _203  and  _206
REMARK   88  A    between atoms: _206  and  _207
REMARK   89  A    between atoms: _211  and  _212
REMARK   90  A    between atoms: _217  and  _219
REMARK   91  A    between atoms: _219  and  _220
REMARK   92  A    between atoms: _219  and  _222
REMARK   93  A    between atoms: _222  and  _223
REMARK   94  A    between atoms: _227  and  _228
REMARK   95  A    between atoms: _233  and  _235
REMARK   96  A    between atoms: _235  and  _236
REMARK   97  A    between atoms: _235  and  _238
REMARK   98  A    between atoms: _241  and  _243
REMARK   99  A    between atoms: _243  and  _244
REMARK  100  A    between atoms: _243  and  _246
REMARK  101  A    between atoms: _246  and  _247
REMARK  102  A    between atoms: _252  and  _254
REMARK  103  A    between atoms: _254  and  _255
REMARK  104  A    between atoms: _254  and  _257
REMARK  105  A    between atoms: _257  and  _258
REMARK  106  A    between atoms: _261  and  _263
REMARK  107  A    between atoms: _263  and  _264
REMARK  108  A    between atoms: _263  and  _266
REMARK  109  A    between atoms: _266  and  _267
REMARK  110  A    between atoms: _270  and  _272
REMARK  111  A    between atoms: _272  and  _273
REMARK  112  A    between atoms: _275  and  _277
REMARK  113  A    between atoms: _277  and  _278
REMARK  114  A    between atoms: _277  and  _280
REMARK  115  A    between atoms: _280  and  _281
REMARK  116  A    between atoms: _281  and  _282
REMARK  117  A    between atoms: _282  and  _283
REMARK  118  A    between atoms: _292  and  _294
REMARK  119  A    between atoms: _294  and  _295
REMARK  120  A    between atoms: _294  and  _297
REMARK  121  A    between atoms: _297  and  _298
REMARK  122  A    between atoms: _303  and  _305
REMARK  123  A    between atoms: _305  and  _306
REMARK  124  A    between atoms: _305  and  _308
REMARK  125  A    between atoms: _308  and  _309
REMARK  126  A    between atoms: _309  and  _310
REMARK  127  A    between atoms: _310  and  _311
REMARK  128  A    between atoms: _320  and  _322
REMARK  129  A    between atoms: _322  and  _323
REMARK  130  A    between atoms: _322  and  _325
REMARK  131  A    between atoms: _325  and  _326
REMARK  132  A    between atoms: _329  and  _331
REMARK  133  A    between atoms: _331  and  _332
REMARK  134  A    between atoms: _331  and  _334
REMARK  135  A    between atoms: _334  and  _335
REMARK  136  A    between atoms: _338  and  _340
REMARK  137  A    between atoms: _340  and  _341
REMARK  138  A    between atoms: _340  and  _343
REMARK  139  A    between atoms: _343  and  _344
REMARK  140  A    between atoms: _347  and  _349
REMARK  141  A    between atoms: _349  and  _350
REMARK  142  A    between atoms: _349  and  _352
REMARK  143  A    between atoms: _352  and  _353
REMARK  144  A    between atoms: _356  and  _358
REMARK  145  A    between atoms: _358  and  _359
REMARK  146  A    between atoms: _361  and  _363
REMARK  147  A    between atoms: _363  and  _364
REMARK  148  A    between atoms: _367  and  _369
REMARK  149  A    between atoms: _369  and  _370
REMARK  150  A    between atoms: _369  and  _372
REMARK  151  A    between atoms: _372  and  _373
REMARK  152  A    between atoms: _376  and  _378
REMARK  153  A    between atoms: _378  and  _379
REMARK  154  A    between atoms: _378  and  _381
REMARK  155  A    between atoms: _381  and  _382
REMARK  156  A    between atoms: _385  and  _387
REMARK  157  A    between atoms: _387  and  _388
REMARK  158  A    between atoms: _387  and  _390
REMARK  159  A    between atoms: _390  and  _391
REMARK  160  A    between atoms: _394  and  _396
REMARK  161  A    between atoms: _396  and  _397
REMARK  162  A    between atoms: _396  and  _399
REMARK  163  A    between atoms: _402  and  _404
REMARK  164  A    between atoms: _404  and  _405
REMARK  165  A    between atoms: _404  and  _407
REMARK  166  A    between atoms: _407  and  _408
REMARK  167  A    between atoms: _408  and  _409
REMARK  168  A    between atoms: _409  and  _410
REMARK  169  A    between atoms: _410  and  _411
REMARK  170  A    between atoms: _415  and  _417
REMARK  171  A    between atoms: _417  and  _418
REMARK  172  A    between atoms: _417  and  _420
REMARK  173  A    between atoms: _420  and  _421
REMARK  174  A    between atoms: _421  and  _422
REMARK  175  A    between atoms: _424  and  _426
REMARK  176  A    between atoms: _426  and  _427
REMARK  177  A    between atoms: _426  and  _429
REMARK  178  A    between atoms: _429  and  _430
REMARK  179  A    between atoms: _433  and  _435
REMARK  180  A    between atoms: _435  and  _436
REMARK  181  A    between atoms: _435  and  _438
REMARK  182  A    between atoms: _441  and  _443
REMARK  183  A    between atoms: _443  and  _444
REMARK  184  A    between atoms: _446  and  _448
REMARK  185  A    between atoms: _448  and  _449
REMARK  186  A    between atoms: _448  and  _451
REMARK  187  A    between atoms: _451  and  _452
REMARK  188  A    between atoms: _455  and  _457
REMARK  189  A    between atoms: _457  and  _458
REMARK  190  A    between atoms: _460  and  _462
REMARK  191  A    between atoms: _462  and  _463
REMARK  192  A    between atoms: _465  and  _467
REMARK  193  A    between atoms: _467  and  _468
REMARK  194  A    between atoms: _467  and  _470
REMARK  195  A    between atoms: _470  and  _471
REMARK  196  A    between atoms: _474  and  _476
REMARK  197  A    between atoms: _476  and  _477
REMARK  198  A    between atoms: _476  and  _479
REMARK  199  A    between atoms: _479  and  _480
REMARK  200  A    between atoms: _483  and  _485
REMARK  201  A    between atoms: _485  and  _486
REMARK  202  A    between atoms: _485  and  _488
REMARK  203  A    between atoms: _488  and  _489
REMARK  204  A    between atoms: _493  and  _494
REMARK  205  A    between atoms: _499  and  _501
REMARK  206  A    between atoms: _501  and  _502
REMARK  207  A    between atoms: _501  and  _504
REMARK  208  A    between atoms: _507  and  _509
REMARK  209  A    between atoms: _509  and  _510
REMARK  210  A    between atoms: _509  and  _512
REMARK  211  A    between atoms: _512  and  _513
REMARK  212  A    between atoms: _518  and  _520
REMARK  213  A    between atoms: _520  and  _521
REMARK  214  A    between atoms: _520  and  _523
REMARK  215  A    between atoms: _523  and  _524
REMARK  216  A    between atoms: _527  and  _529
REMARK  217  A    between atoms: _529  and  _530
REMARK  218  A    between atoms: _529  and  _532
REMARK  219  A    between atoms: _532  and  _533
REMARK  220  A    between atoms: _536  and  _538
REMARK  221  A    between atoms: _538  and  _539
REMARK  222  A    between atoms: _541  and  _543
REMARK  223  A    between atoms: _543  and  _544
REMARK  224  A    between atoms: _543  and  _546
REMARK  225  A    between atoms: _546  and  _547
REMARK  226  A    between atoms: _547  and  _548
REMARK  227  A    between atoms: _548  and  _549
REMARK  228  A    between atoms: _558  and  _560
REMARK  229  A    between atoms: _560  and  _561
REMARK  230  A    between atoms: _560  and  _563
REMARK  231  A    between atoms: _563  and  _564
REMARK                            x       y       z     vdW  Elec       q    Type
REMARK                         _______ _______ _______ _____ _____    ______ ____
ROOT
ATOM      1  CA  LEU A   1      -7.825  12.283  -6.535  0.00  0.00    +0.133 C 
ENDROOT
BRANCH   1   2
ATOM      2  N   LEU A   1      -8.562  11.094  -6.838  0.00  0.00    -0.239 NA
ATOM      3  H   LEU A   1      -9.257  11.111  -7.612  0.00  0.00    +0.142 HD
ENDBRANCH   1   2
BRANCH   1   4
ATOM      4  C   LEU A   1      -8.674  13.188  -5.642  0.00  0.00    +0.224 C 
ATOM      5  O   LEU A   1      -9.876  13.274  -5.888  0.00  0.00    -0.287 OA
ENDBRANCH   1   4
BRANCH   1   6
ATOM      6  CB  LEU A   1      -7.478  13.041  -7.820  0.00  0.00    +0.025 C 
BRANCH   6   7
ATOM      7  CG  LEU A   1      -6.765  12.204  -8.892  0.00  0.00    +0.002 C 
ATOM      8  CD2 LEU A   1      -5.501  11.578  -8.338  0.00  0.00    +0.000 C 
ATOM      9  CD1 LEU A   1      -6.467  13.034 -10.132  0.00  0.00    +0.000 C 
ENDBRANCH   6   7
ENDBRANCH   1   6
TORSDOF 4
REMARK  Name = ../refined-set-2016/3cyw/3cyw_pocket.pdb
REMARK  231 active torsions:
REMARK  status: ('A' for Active; 'I' for Inactive)
REMARK    1  A    between atoms: _1  and  _3
REMARK    2  A    between atoms: _3  and  _4
REMARK    3  A    between atoms: _3  and  _6
REMARK    4  A    between atoms: _6  and  _7
REMARK    5  A    between atoms: _7  and  _8
REMARK    6  A    between atoms: _8  and  _9
REMARK    7  A    between atoms: _18  and  _20
REMARK    8  A    between atoms: _20  and  _21
REMARK    9  A    between atoms: _20  and  _23
REMARK   10  A    between atoms: _23  and  _24
REMARK   11  A    between atoms: _27  and  _29
REMARK   12  A    between atoms: _29  and  _30
REMARK   13  A    between atoms: _29  and  _32
REMARK   14  A    between atoms: _32  and  _33
REMARK   15  A    between atoms: _36  and  _38
REMARK   16  A    between atoms: _38  and  _39
REMARK   17  A    between atoms: _38  and  _41
REMARK   18  A    between atoms: _41  and  _42
REMARK   19  A    between atoms: _45  and  _47
REMARK   20  A    between atoms: _47  and  _48
REMARK   21  A    between atoms: _47  and  _50
REMARK   22  A    between atoms: _50  and  _51
REMARK   23  A    between atoms: _54  and  _56
REMARK   24  A    between atoms: _56  and  _57
REMARK   25  A    between atoms: _59  and  _61
REMARK   26  A    between atoms: _61  and  _62
REMARK   27  A    between atoms: _65  and  _67
REMARK   28  A    between atoms: _67  and  _68
REMARK   29  A    between atoms: _67  and  _70
REMARK   30  A    between atoms: _70  and  _71
REMARK   31  A    between atoms: _74  and  _76
REMARK   32  A    between atoms: _76  and  _77
REMARK   33  A    between atoms: _76  and  _79
REMARK   34  A    between atoms: _79  and  _80
REMARK   35  A    between atoms: _83  and  _85
REMARK   36  A    between atoms: _85  and  _86
REMARK   37  A    between atoms: _85  and  _88
REMARK   38  A    between atoms: _88  and  _89
REMARK   39  A    between atoms: _92  and  _94
REMARK   40  A    between atoms: _94  and  _95
REMARK   41  A    between atoms: _94  and  _97
REMARK   42  A    between atoms: _100  and  _102
REMARK   43  A    between atoms: _102  and  _103
REMARK   44  A    between atoms: _102  and  _105
REMARK   45  A    between atoms: _105  and  _106
REMARK   46  A    between atoms: _109  and  _111
REMARK   47  A    between atoms: _111  and  _112
REMARK   48  A    between atoms: _111  and  _114
REMARK   49  A    between atoms: _115  and  _116
REMARK   50  A    between atoms: _116  and  _117
REMARK   51  A    between atoms: _117  and  _118
REMARK   52  A    between atoms: _122  and  _124
REMARK   53  A    between atoms: _124  and  _125
REMARK   54  A    between atoms: _124  and  _127
REMARK   55  A    between atoms: _127  and  _128
REMARK   56  A    between atoms: _128  and  _129
REMARK   57  A    between atoms: _131  and  _133
REMARK   58  A    between atoms: _133  and  _134
REMARK   59  A    between atoms: _133  and  _136
REMARK   60  A    between atoms: _136  and  _137
REMARK   61  A    between atoms: _140  and  _142
REMARK   62  A    between atoms: _142  and  _143
REMARK   63  A    between atoms: _142  and  _145
REMARK   64  A    between atoms: _148  and  _150
REMARK   65  A    between atoms: _150  and  _151
REMARK   66  A    between atoms: _153  and  _155
REMARK   67  A    between atoms: _155  and  _156
REMARK   68  A    between atoms: _155  and  _158
REMARK   69  A    between atoms: _158  and  _159
REMARK   70  A    between atoms: _162  and  _164
REMARK   71  A    between atoms: _164  and  _165
REMARK   72  A    between atoms: _167  and  _169
REMARK   73  A    between atoms: _169  and  _170
REMARK   74  A    between atoms: _172  and  _174
REMARK   75  A    between atoms: _174  and  _175
REMARK   76  A    between atoms: _174  and  _177
REMARK   77  A    between atoms: _177  and  _178
REMARK   78  A    between atoms: _184  and  _186
REMARK   79  A    between atoms: _186  and  _187
REMARK   80  A    between atoms: _186  and  _189
REMARK   81  A    between atoms: _189  and  _190
REMARK   82  A    between atoms: _193  and  _195
REMARK   83  A    between atoms: _195  and  _196
REMARK   84  A    between atoms: _195  and  _198
REMARK   85  A    between atoms: _201  and  _203
REMARK   86  A    between atoms: _203  and  _204
REMARK   87  A    between atoms: _203  and  _206
REMARK   88  A    between atoms: _206  and  _207
REMARK   89  A    between atoms: _211  and  _212
REMARK   90  A    between atoms: _217  and  _219
REMARK   91  A    between atoms: _219  and  _220
REMARK   92  A    between atoms: _219  and  _222
REMARK   93  A    between atoms: _222  and  _223
REMARK   94  A    between atoms: _227  and  _228
REMARK   95  A    between atoms: _233  and  _235
REMARK   96  A    between atoms: _235  and  _236
REMARK   97  A    between atoms: _235  and  _238
REMARK   98  A    between atoms: _241  and  _243
REMARK   99  A    between atoms: _243  and  _244
REMARK  100  A    between atoms: _243  and  _246
REMARK  101  A    between atoms: _246  and  _247
REMARK  102  A    between atoms: _252  and  _254
REMARK  103  A    between atoms: _254  and  _255
REMARK  104  A    between atoms: _254  and  _257
REMARK  105  A    between atoms: _257  and  _258
REMARK  106  A    between atoms: _261  and  _263
REMARK  107  A    between atoms: _263  and  _264
REMARK  108  A    between atoms: _263  and  _266
REMARK  109  A    between atoms: _266  and  _267
REMARK  110  A    between atoms: _270  and  _272
REMARK  111  A    between atoms: _272  and  _273
REMARK  112  A    between atoms: _275  and  _277
REMARK  113  A    between atoms: _277  and  _278
REMARK  114  A    between atoms: _277  and  _280
REMARK  115  A    between atoms: _280  and  _281
REMARK  116  A    between atoms: _281  and  _282
REMARK  117  A    between atoms: _282  and  _283
REMARK  118  A    between atoms: _292  and  _294
REMARK  119  A    between atoms: _294  and  _295
REMARK  120  A    between atoms: _294  and  _297
REMARK  121  A    between atoms: _297  and  _298
REMARK  122  A    between atoms: _303  and  _305
REMARK  123  A    between atoms: _305  and  _306
REMARK  124  A    between atoms: _305  and  _308
REMARK  125  A    between atoms: _308  and  _309
REMARK  126  A    between atoms: _309  and  _310
REMARK  127  A    between atoms: _310  and  _311
REMARK  128  A    between atoms: _320  and  _322
REMARK  129  A    between atoms: _322  and  _323
REMARK  130  A    between atoms: _322  and  _325
REMARK  131  A    between atoms: _325  and  _326
REMARK  132  A    between atoms: _329  and  _331
REMARK  133  A    between atoms: _331  and  _332
REMARK  134  A    between atoms: _331  and  _334
REMARK  135  A    between atoms: _334  and  _335
REMARK  136  A    between atoms: _338  and  _340
REMARK  137  A    between atoms: _340  and  _341
REMARK  138  A    between atoms: _340  and  _343
REMARK  139  A    between atoms: _343  and  _344
REMARK  140  A    between atoms: _347  and  _349
REMARK  141  A    between atoms: _349  and  _350
REMARK  142  A    between atoms: _349  and  _352
REMARK  143  A    between atoms: _352  and  _353
REMARK  144  A    between atoms: _356  and  _358
REMARK  145  A    between atoms: _358  and  _359
REMARK  146  A    between atoms: _361  and  _363
REMARK  147  A    between atoms: _363  and  _364
REMARK  148  A    between atoms: _367  and  _369
REMARK  149  A    between atoms: _369  and  _370
REMARK  150  A    between atoms: _369  and  _372
REMARK  151  A    between atoms: _372  and  _373
REMARK  152  A    between atoms: _376  and  _378
REMARK  153  A    between atoms: _378  and  _379
REMARK  154  A    between atoms: _378  and  _381
REMARK  155  A    between atoms: _381  and  _382
REMARK  156  A    between atoms: _385  and  _387
REMARK  157  A    between atoms: _387  and  _388
REMARK  158  A    between atoms: _387  and  _390
REMARK  159  A    between atoms: _390  and  _391
REMARK  160  A    between atoms: _394  and  _396
REMARK  161  A    between atoms: _396  and  _397
REMARK  162  A    between atoms: _396  and  _399
REMARK  163  A    between atoms: _402  and  _404
REMARK  164  A    between atoms: _404  and  _405
REMARK  165  A    between atoms: _404  and  _407
REMARK  166  A    between atoms: _407  and  _408
REMARK  167  A    between atoms: _408  and  _409
REMARK  168  A    between atoms: _409  and  _410
REMARK  169  A    between atoms: _410  and  _411
REMARK  170  A    between atoms: _415  and  _417
REMARK  171  A    between atoms: _417  and  _418
REMARK  172  A    between atoms: _417  and  _420
REMARK  173  A    between atoms: _420  and  _421
REMARK  174  A    between atoms: _421  and  _422
REMARK  175  A    between atoms: _424  and  _426
REMARK  176  A    between atoms: _426  and  _427
REMARK  177  A    between atoms: _426  and  _429
REMARK  178  A    between atoms: _429  and  _430
REMARK  179  A    between atoms: _433  and  _435
REMARK  180  A    between atoms: _435  and  _436
REMARK  181  A    between atoms: _435  and  _438
REMARK  182  A    between atoms: _441  and  _443
REMARK  183  A    between atoms: _443  and  _444
REMARK  184  A    between atoms: _446  and  _448
REMARK  185  A    between atoms: _448  and  _449
REMARK  186  A    between atoms: _448  and  _451
REMARK  187  A    between atoms: _451  and  _452
REMARK  188  A    between atoms: _455  and  _457
REMARK  189  A    between atoms: _457  and  _458
REMARK  190  A    between atoms: _460  and  _462
REMARK  191  A    between atoms: _462  and  _463
REMARK  192  A    between atoms: _465  and  _467
REMARK  193  A    between atoms: _467  and  _468
REMARK  194  A    between atoms: _467  and  _470
REMARK  195  A    between atoms: _470  and  _471
REMARK  196  A    between atoms: _474  and  _476
REMARK  197  A    between atoms: _476  and  _477
REMARK  198  A    between atoms: _476  and  _479
REMARK  199  A    between atoms: _479  and  _480
REMARK  200  A    between atoms: _483  and  _485
REMARK  201  A    between atoms: _485  and  _486
REMARK  202  A    between atoms: _485  and  _488
REMARK  203  A    between atoms: _488  and  _489
REMARK  204  A    between atoms: _493  and  _494
REMARK  205  A    between atoms: _499  and  _501
REMARK  206  A    between atoms: _501  and  _502
REMARK  207  A    between atoms: _501  and  _504
REMARK  208  A    between atoms: _507  and  _509
REMARK  209  A    between atoms: _509  and  _510
REMARK  210  A    between atoms: _509  and  _512
REMARK  211  A    between atoms: _512  and  _513
REMARK  212  A    between atoms: _518  and  _520
REMARK  213  A    between atoms: _520  and  _521
REMARK  214  A    between atoms: _520  and  _523
REMARK  215  A    between atoms: _523  and  _524
REMARK  216  A    between atoms: _527  and  _529
REMARK  217  A    between atoms: _529  and  _530
REMARK  218  A    between atoms: _529  and  _532
REMARK  219  A    between atoms: _532  and  _533
REMARK  220  A    between atoms: _536  and  _538
REMARK  221  A    between atoms: _538  and  _539
REMARK  222  A    between atoms: _541  and  _543
REMARK  223  A    between atoms: _543  and  _544
REMARK  224  A    between atoms: _543  and  _546
REMARK  225  A    between atoms: _546  and  _547
REMARK  226  A    between atoms: _547  and  _548
REMARK  227  A    between atoms: _548  and  _549
REMARK  228  A    between atoms: _558  and  _560
REMARK  229  A    between atoms: _560  and  _561
REMARK  230  A    between atoms: _560  and  _563
REMARK  231  A    between atoms: _563  and  _564
REMARK                            x       y       z     vdW  Elec       q    Type
REMARK                         _______ _______ _______ _____ _____    ______ ____
ROOT
ATOM      1  CA  ILE A   6     -16.069  14.385 -11.118  0.00  0.00    +0.149 C 
ENDROOT
BRANCH   1   2
ATOM      2  C   ILE A   6     -15.675  12.925 -11.146  0.00  0.00    +0.241 C 
ATOM      3  O   ILE A   6     -14.650  12.558 -10.577  0.00  0.00    -0.273 OA
ATOM      4  N   ILE A   7     -16.518  12.118 -11.779  0.00  0.00    -0.297 N 
ATOM      5  H   ILE A   7     -17.453  12.480 -12.054  0.00  0.00    +0.150 HD
BRANCH   4   6
ATOM      6  CA  ILE A   7     -16.169  10.739 -12.099  0.00  0.00    +0.149 C 
BRANCH   6   7
ATOM      7  C   ILE A   7     -15.545  10.727 -13.485  0.00  0.00    +0.241 C 
ATOM      8  N   GLY A   8     -14.257  10.374 -13.508  0.00  0.00    -0.295 N 
ATOM      9  H   GLY A   8     -13.802  10.125 -12.607  0.00  0.00    +0.150 HD
ATOM     10  O   ILE A   7     -16.191  11.054 -14.473  0.00  0.00    -0.273 OA
BRANCH   8  11
ATOM     11  CA  GLY A   8     -13.478  10.319 -14.682  0.00  0.00    +0.176 C 
BRANCH  11  12
ATOM     12  C   GLY A   8     -13.370   8.956 -15.339  0.00  0.00    +0.243 C 
ATOM     13  O   GLY A   8     -13.944   7.969 -14.876  0.00  0.00    -0.273 OA
ATOM     14  N   ARG A   9     -12.657   8.921 -16.469  0.00  0.00    -0.297 N 
ATOM     15  H   ARG A   9     -12.124   9.764 -16.764  0.00  0.00    +0.150 HD
BRANCH  14  16
ATOM     16  CA  ARG A   9     -12.614   7.713 -17.300  0.00  0.00    +0.149 C 
BRANCH  16  17
ATOM     17  C   ARG A   9     -12.104   6.507 -16.530  0.00  0.00    +0.241 C 
ATOM     18  N   ASN A  10     -11.201   6.721 -15.579  0.00  0.00    -0.298 N 
ATOM     19  H   ASN A  10     -10.900   7.687 -15.338  0.00  0.00    +0.150 HD
ATOM     20  O   ARG A   9     -12.510   5.369 -16.793  0.00  0.00    -0.273 OA
BRANCH  18  21
ATOM     21  CA  ASN A  10     -10.639   5.560 -14.877  0.00  0.00    +0.146 C 
BRANCH  21  22
ATOM     22  C   ASN A  10     -11.697   4.725 -14.158  0.00  0.00    +0.227 C 
ATOM     23  O   ASN A  10     -11.465   3.509 -13.968  0.00  0.00    -0.286 OA
ENDBRANCH  21  22
BRANCH  21  24
ATOM     24  CB  ASN A  10      -9.553   6.008 -13.910  0.00  0.00    +0.112 C 
BRANCH  24  25
ATOM     25  CG  ASN A  10      -9.973   6.594 -12.568  0.00  0.00    +0.222 C 
ATOM     26  OD1 ASN A  10      -9.554   6.173 -11.460  0.00  0.00    -0.275 OA
ATOM     27  ND2 ASN A  10     -10.836   7.583 -12.703  0.00  0.00    -0.329 N 
ATOM     28 HD21 ASN A  10     -11.211   8.064 -11.861  0.00  0.00    +0.145 HD
ATOM     29 HD22 ASN A  10     -11.141   7.881 -13.652  0.00  0.00    +0.145 HD
ENDBRANCH  24  25
ENDBRANCH  21  24
ENDBRANCH  18  21
ENDBRANCH  16  17
BRANCH  16  30
ATOM     30  CB  ARG A   9     -11.782   7.962 -18.544  0.00  0.00    +0.033 C 
BRANCH  30  31
ATOM     31  CG  ARG A   9     -12.389   8.944 -19.531  0.00  0.00    +0.045 C 
BRANCH  31  32
ATOM     32  CD  ARG A   9     -11.585   9.007 -20.823  0.00  0.00    +0.174 C 
BRANCH  32  33
ATOM     33  NE  ARG A   9     -10.222   9.498 -20.632  0.00  0.00    -0.265 N 
ATOM     34  HE  ARG A   9     -10.095  10.523 -20.513  0.00  0.00    +0.259 HD
ATOM     35  CZ  ARG A   9      -9.122   8.733 -20.598  0.00  0.00    +0.342 C 
ATOM     36  NH2 ARG A   9      -7.928   9.304 -20.417  0.00  0.00    -0.292 N 
ATOM     37 HH21 ARG A   9      -7.857  10.335 -20.304  0.00  0.00    +0.255 HD
ATOM     38 HH22 ARG A   9      -7.070   8.717 -20.389  0.00  0.00    +0.255 HD
ATOM     39  NH1 ARG A   9      -9.185   7.409 -20.729  0.00  0.00    -0.292 N 
ATOM     40 HH11 ARG A   9      -8.314   6.841 -20.698  0.00  0.00    +0.255 HD
ATOM     41 HH12 ARG A   9     -10.105   6.943 -20.862  0.00  0.00    +0.255 HD
ENDBRANCH  32  33
ENDBRANCH  31  32
ENDBRANCH  30  31
ENDBRANCH  16  30
ENDBRANCH  14  16
ENDBRANCH  11  12
ENDBRANCH   8  11
ENDBRANCH   6   7
BRANCH   6  42
ATOM     42  CB  ILE A   7     -17.353   9.778 -12.080  0.00  0.00    +0.027 C 
ATOM     43  CG2 ILE A   7     -16.940   8.351 -12.385  0.00  0.00    +0.002 C 
BRANCH  42  44
ATOM     44  CG1 ILE A   7     -18.095   9.856 -10.735  0.00  0.00    +0.002 C 
ATOM     45  CD1 ILE A   7     -17.180   9.635  -9.539  0.00  0.00    +0.000 C 
ENDBRANCH  42  44
ENDBRANCH   6  42
ENDBRANCH   4   6
ENDBRANCH   1   2
BRANCH   1  47
ATOM     46  C   ASN A   5     -17.172  15.544  -9.266  0.00  0.00    +0.241 C 
ATOM     47  N   ILE A   6     -16.102  14.875  -9.735  0.00  0.00    -0.297 N 
ATOM     48  H   ILE A   6     -15.289  14.703  -9.110  0.00  0.00    +0.150 HD
ATOM     49  O   ASN A   5     -18.222  15.661  -9.878  0.00  0.00    -0.273 OA
BRANCH  46  50
ATOM     50  CA  ASN A   5     -17.047  16.169  -7.870  0.00  0.00    +0.158 C 
BRANCH  50  52
ATOM     51  C   VAL A   4     -16.797  18.522  -8.467  0.00  0.00    +0.241 C 
ATOM     52  N   ASN A   5     -17.509  17.578  -7.870  0.00  0.00    -0.297 N 
ATOM     53  H   ASN A   5     -18.401  17.827  -7.397  0.00  0.00    +0.150 HD
ATOM     54  O   VAL A   4     -15.666  18.313  -8.947  0.00  0.00    -0.273 OA
BRANCH  51  55
ATOM     55  CA  VAL A   4     -17.363  19.924  -8.652  0.00  0.00    +0.149 C 
BRANCH  55  58
ATOM     56  C   PRO A   3     -16.619  22.045  -7.776  0.00  0.00    +0.241 C 
ATOM     57  O   PRO A   3     -17.737  22.291  -7.308  0.00  0.00    -0.273 OA
ATOM     58  N   VAL A   4     -16.335  20.915  -8.403  0.00  0.00    -0.297 N 
ATOM     59  H   VAL A   4     -15.361  20.736  -8.721  0.00  0.00    +0.150 HD
BRANCH  56  63
ATOM     60  C   THR A   2     -13.602  21.577  -7.019  0.00  0.00    +0.246 C 
ATOM     61  O   THR A   2     -14.114  21.266  -5.934  0.00  0.00    -0.273 OA
ATOM     62  N   PRO A   3     -14.131  22.414  -7.918  0.00  0.00    -0.272 N 
ATOM     63  CA  PRO A   3     -15.448  23.028  -7.643  0.00  0.00    +0.152 C 
ATOM     64  CB  PRO A   3     -15.564  24.140  -8.687  0.00  0.00    +0.031 C 
ATOM     65  CG  PRO A   3     -14.718  23.657  -9.818  0.00  0.00    +0.024 C 
ATOM     66  CD  PRO A   3     -13.588  22.868  -9.215  0.00  0.00    +0.094 C 
BRANCH  60  67
ATOM     67  CA  THR A   2     -12.247  20.940  -7.309  0.00  0.00    +0.176 C 
BRANCH  67  69
ATOM     68  C   PRO A   1     -10.697  21.929  -5.692  0.00  0.00    +0.239 C 
ATOM     69  N   THR A   2     -11.444  20.907  -6.082  0.00  0.00    -0.295 N 
ATOM     70  H   THR A   2     -11.462  20.048  -5.496  0.00  0.00    +0.150 HD
ATOM     71  O   PRO A   1     -10.619  22.918  -6.423  0.00  0.00    -0.274 OA
BRANCH  68  73
ATOM     72  N   PRO A   1      -9.062  20.658  -4.281  0.00  0.00    -0.210 NA
ATOM     73  CA  PRO A   1     -10.004  21.789  -4.340  0.00  0.00    +0.149 C 
ATOM     74  CB  PRO A   1      -9.087  22.972  -4.061  0.00  0.00    +0.028 C 
ATOM     75  CG  PRO A   1      -7.770  22.569  -4.663  0.00  0.00    +0.021 C 
ATOM     76  CD  PRO A   1      -7.661  21.102  -4.343  0.00  0.00    +0.089 C 
ENDBRANCH  68  73
ENDBRANCH  67  69
BRANCH  67  77
ATOM     77  CB  THR A   2     -12.462  19.550  -7.907  0.00  0.00    +0.137 C 
ATOM     78  CG2 THR A   2     -13.072  18.585  -6.938  0.00  0.00    +0.034 C 
BRANCH  77  79
ATOM     79  OG1 THR A   2     -13.352  19.673  -9.018  0.00  0.00    -0.382 OA
ATOM     80  HG1 THR A   2     -13.503  18.780  -9.419  0.00  0.00    +0.210 HD
ENDBRANCH  77  79
ENDBRANCH  67  77
ENDBRANCH  60  67
ENDBRANCH  56  63
ENDBRANCH  55  58
BRANCH  55  81
ATOM     81  CB  VAL A   4     -17.920  20.051 -10.086  0.00  0.00    +0.027 C 
ATOM     82  CG2 VAL A   4     -18.626  21.393 -10.249  0.00  0.00    +0.002 C 
ATOM     83  CG1 VAL A   4     -18.850  18.905 -10.406  0.00  0.00    +0.002 C 
ENDBRANCH  55  81
ENDBRANCH  51  55
ENDBRANCH  50  52
BRANCH  50  84
ATOM     84  CB  ASN A   5     -17.808  15.343  -6.834  0.00  0.00    +0.114 C 
BRANCH  84  85
ATOM     85  CG  ASN A   5     -17.623  15.916  -5.431  0.00  0.00    +0.222 C 
ATOM     86  ND2 ASN A   5     -18.766  16.034  -4.782  0.00  0.00    -0.329 N 
ATOM     87 HD21 ASN A   5     -18.779  16.428  -3.820  0.00  0.00    +0.145 HD
ATOM     88 HD22 ASN A   5     -19.653  15.733  -5.233  0.00  0.00    +0.145 HD
ATOM     89  OD1 ASN A   5     -16.524  16.242  -4.987  0.00  0.00    -0.275 OA
ENDBRANCH  84  85
ENDBRANCH  50  84
ENDBRANCH  46  50
ENDBRANCH   1  47
BRANCH   1  90
ATOM     90  CB  ILE A   6     -15.206  15.269 -12.033  0.00  0.00    +0.027 C 
ATOM     91  CG2 ILE A   6     -15.597  16.741 -11.822  0.00  0.00    +0.002 C 
BRANCH  90  92
ATOM     92  CG1 ILE A   6     -13.688  15.162 -11.947  0.00  0.00    +0.002 C 
ATOM     93  CD1 ILE A   6     -12.943  16.069 -12.909  0.00  0.00    +0.000 C 
ENDBRANCH  90  92
ENDBRANCH   1  90
TORSDOF 33
REMARK  Name = ../refined-set-2016/3cyw/3cyw_pocket.pdb
REMARK  231 active torsions:
REMARK  status: ('A' for Active; 'I' for Inactive)
REMARK    1  A    between atoms: _1  and  _3
REMARK    2  A    between atoms: _3  and  _4
REMARK    3  A    between atoms: _3  and  _6
REMARK    4  A    between atoms: _6  and  _7
REMARK    5  A    between atoms: _7  and  _8
REMARK    6  A    between atoms: _8  and  _9
REMARK    7  A    between atoms: _18  and  _20
REMARK    8  A    between atoms: _20  and  _21
REMARK    9  A    between atoms: _20  and  _23
REMARK   10  A    between atoms: _23  and  _24
REMARK   11  A    between atoms: _27  and  _29
REMARK   12  A    between atoms: _29  and  _30
REMARK   13  A    between atoms: _29  and  _32
REMARK   14  A    between atoms: _32  and  _33
REMARK   15  A    between atoms: _36  and  _38
REMARK   16  A    between atoms: _38  and  _39
REMARK   17  A    between atoms: _38  and  _41
REMARK   18  A    between atoms: _41  and  _42
REMARK   19  A    between atoms: _45  and  _47
REMARK   20  A    between atoms: _47  and  _48
REMARK   21  A    between atoms: _47  and  _50
REMARK   22  A    between atoms: _50  and  _51
REMARK   23  A    between atoms: _54  and  _56
REMARK   24  A    between atoms: _56  and  _57
REMARK   25  A    between atoms: _59  and  _61
REMARK   26  A    between atoms: _61  and  _62
REMARK   27  A    between atoms: _65  and  _67
REMARK   28  A    between atoms: _67  and  _68
REMARK   29  A    between atoms: _67  and  _70
REMARK   30  A    between atoms: _70  and  _71
REMARK   31  A    between atoms: _74  and  _76
REMARK   32  A    between atoms: _76  and  _77
REMARK   33  A    between atoms: _76  and  _79
REMARK   34  A    between atoms: _79  and  _80
REMARK   35  A    between atoms: _83  and  _85
REMARK   36  A    between atoms: _85  and  _86
REMARK   37  A    between atoms: _85  and  _88
REMARK   38  A    between atoms: _88  and  _89
REMARK   39  A    between atoms: _92  and  _94
REMARK   40  A    between atoms: _94  and  _95
REMARK   41  A    between atoms: _94  and  _97
REMARK   42  A    between atoms: _100  and  _102
REMARK   43  A    between atoms: _102  and  _103
REMARK   44  A    between atoms: _102  and  _105
REMARK   45  A    between atoms: _105  and  _106
REMARK   46  A    between atoms: _109  and  _111
REMARK   47  A    between atoms: _111  and  _112
REMARK   48  A    between atoms: _111  and  _114
REMARK   49  A    between atoms: _115  and  _116
REMARK   50  A    between atoms: _116  and  _117
REMARK   51  A    between atoms: _117  and  _118
REMARK   52  A    between atoms: _122  and  _124
REMARK   53  A    between atoms: _124  and  _125
REMARK   54  A    between atoms: _124  and  _127
REMARK   55  A    between atoms: _127  and  _128
REMARK   56  A    between atoms: _128  and  _129
REMARK   57  A    between atoms: _131  and  _133
REMARK   58  A    between atoms: _133  and  _134
REMARK   59  A    between atoms: _133  and  _136
REMARK   60  A    between atoms: _136  and  _137
REMARK   61  A    between atoms: _140  and  _142
REMARK   62  A    between atoms: _142  and  _143
REMARK   63  A    between atoms: _142  and  _145
REMARK   64  A    between atoms: _148  and  _150
REMARK   65  A    between atoms: _150  and  _151
REMARK   66  A    between atoms: _153  and  _155
REMARK   67  A    between atoms: _155  and  _156
REMARK   68  A    between atoms: _155  and  _158
REMARK   69  A    between atoms: _158  and  _159
REMARK   70  A    between atoms: _162  and  _164
REMARK   71  A    between atoms: _164  and  _165
REMARK   72  A    between atoms: _167  and  _169
REMARK   73  A    between atoms: _169  and  _170
REMARK   74  A    between atoms: _172  and  _174
REMARK   75  A    between atoms: _174  and  _175
REMARK   76  A    between atoms: _174  and  _177
REMARK   77  A    between atoms: _177  and  _178
REMARK   78  A    between atoms: _184  and  _186
REMARK   79  A    between atoms: _186  and  _187
REMARK   80  A    between atoms: _186  and  _189
REMARK   81  A    between atoms: _189  and  _190
REMARK   82  A    between atoms: _193  and  _195
REMARK   83  A    between atoms: _195  and  _196
REMARK   84  A    between atoms: _195  and  _198
REMARK   85  A    between atoms: _201  and  _203
REMARK   86  A    between atoms: _203  and  _204
REMARK   87  A    between atoms: _203  and  _206
REMARK   88  A    between atoms: _206  and  _207
REMARK   89  A    between atoms: _211  and  _212
REMARK   90  A    between atoms: _217  and  _219
REMARK   91  A    between atoms: _219  and  _220
REMARK   92  A    between atoms: _219  and  _222
REMARK   93  A    between atoms: _222  and  _223
REMARK   94  A    between atoms: _227  and  _228
REMARK   95  A    between atoms: _233  and  _235
REMARK   96  A    between atoms: _235  and  _236
REMARK   97  A    between atoms: _235  and  _238
REMARK   98  A    between atoms: _241  and  _243
REMARK   99  A    between atoms: _243  and  _244
REMARK  100  A    between atoms: _243  and  _246
REMARK  101  A    between atoms: _246  and  _247
REMARK  102  A    between atoms: _252  and  _254
REMARK  103  A    between atoms: _254  and  _255
REMARK  104  A    between atoms: _254  and  _257
REMARK  105  A    between atoms: _257  and  _258
REMARK  106  A    between atoms: _261  and  _263
REMARK  107  A    between atoms: _263  and  _264
REMARK  108  A    between atoms: _263  and  _266
REMARK  109  A    between atoms: _266  and  _267
REMARK  110  A    between atoms: _270  and  _272
REMARK  111  A    between atoms: _272  and  _273
REMARK  112  A    between atoms: _275  and  _277
REMARK  113  A    between atoms: _277  and  _278
REMARK  114  A    between atoms: _277  and  _280
REMARK  115  A    between atoms: _280  and  _281
REMARK  116  A    between atoms: _281  and  _282
REMARK  117  A    between atoms: _282  and  _283
REMARK  118  A    between atoms: _292  and  _294
REMARK  119  A    between atoms: _294  and  _295
REMARK  120  A    between atoms: _294  and  _297
REMARK  121  A    between atoms: _297  and  _298
REMARK  122  A    between atoms: _303  and  _305
REMARK  123  A    between atoms: _305  and  _306
REMARK  124  A    between atoms: _305  and  _308
REMARK  125  A    between atoms: _308  and  _309
REMARK  126  A    between atoms: _309  and  _310
REMARK  127  A    between atoms: _310  and  _311
REMARK  128  A    between atoms: _320  and  _322
REMARK  129  A    between atoms: _322  and  _323
REMARK  130  A    between atoms: _322  and  _325
REMARK  131  A    between atoms: _325  and  _326
REMARK  132  A    between atoms: _329  and  _331
REMARK  133  A    between atoms: _331  and  _332
REMARK  134  A    between atoms: _331  and  _334
REMARK  135  A    between atoms: _334  and  _335
REMARK  136  A    between atoms: _338  and  _340
REMARK  137  A    between atoms: _340  and  _341
REMARK  138  A    between atoms: _340  and  _343
REMARK  139  A    between atoms: _343  and  _344
REMARK  140  A    between atoms: _347  and  _349
REMARK  141  A    between atoms: _349  and  _350
REMARK  142  A    between atoms: _349  and  _352
REMARK  143  A    between atoms: _352  and  _353
REMARK  144  A    between atoms: _356  and  _358
REMARK  145  A    between atoms: _358  and  _359
REMARK  146  A    between atoms: _361  and  _363
REMARK  147  A    between atoms: _363  and  _364
REMARK  148  A    between atoms: _367  and  _369
REMARK  149  A    between atoms: _369  and  _370
REMARK  150  A    between atoms: _369  and  _372
REMARK  151  A    between atoms: _372  and  _373
REMARK  152  A    between atoms: _376  and  _378
REMARK  153  A    between atoms: _378  and  _379
REMARK  154  A    between atoms: _378  and  _381
REMARK  155  A    between atoms: _381  and  _382
REMARK  156  A    between atoms: _385  and  _387
REMARK  157  A    between atoms: _387  and  _388
REMARK  158  A    between atoms: _387  and  _390
REMARK  159  A    between atoms: _390  and  _391
REMARK  160  A    between atoms: _394  and  _396
REMARK  161  A    between atoms: _396  and  _397
REMARK  162  A    between atoms: _396  and  _399
REMARK  163  A    between atoms: _402  and  _404
REMARK  164  A    between atoms: _404  and  _405
REMARK  165  A    between atoms: _404  and  _407
REMARK  166  A    between atoms: _407  and  _408
REMARK  167  A    between atoms: _408  and  _409
REMARK  168  A    between atoms: _409  and  _410
REMARK  169  A    between atoms: _410  and  _411
REMARK  170  A    between atoms: _415  and  _417
REMARK  171  A    between atoms: _417  and  _418
REMARK  172  A    between atoms: _417  and  _420
REMARK  173  A    between atoms: _420  and  _421
REMARK  174  A    between atoms: _421  and  _422
REMARK  175  A    between atoms: _424  and  _426
REMARK  176  A    between atoms: _426  and  _427
REMARK  177  A    between atoms: _426  and  _429
REMARK  178  A    between atoms: _429  and  _430
REMARK  179  A    between atoms: _433  and  _435
REMARK  180  A    between atoms: _435  and  _436
REMARK  181  A    between atoms: _435  and  _438
REMARK  182  A    between atoms: _441  and  _443
REMARK  183  A    between atoms: _443  and  _444
REMARK  184  A    between atoms: _446  and  _448
REMARK  185  A    between atoms: _448  and  _449
REMARK  186  A    between atoms: _448  and  _451
REMARK  187  A    between atoms: _451  and  _452
REMARK  188  A    between atoms: _455  and  _457
REMARK  189  A    between atoms: _457  and  _458
REMARK  190  A    between atoms: _460  and  _462
REMARK  191  A    between atoms: _462  and  _463
REMARK  192  A    between atoms: _465  and  _467
REMARK  193  A    between atoms: _467  and  _468
REMARK  194  A    between atoms: _467  and  _470
REMARK  195  A    between atoms: _470  and  _471
REMARK  196  A    between atoms: _474  and  _476
REMARK  197  A    between atoms: _476  and  _477
REMARK  198  A    between atoms: _476  and  _479
REMARK  199  A    between atoms: _479  and  _480
REMARK  200  A    between atoms: _483  and  _485
REMARK  201  A    between atoms: _485  and  _486
REMARK  202  A    between atoms: _485  and  _488
REMARK  203  A    between atoms: _488  and  _489
REMARK  204  A    between atoms: _493  and  _494
REMARK  205  A    between atoms: _499  and  _501
REMARK  206  A    between atoms: _501  and  _502
REMARK  207  A    between atoms: _501  and  _504
REMARK  208  A    between atoms: _507  and  _509
REMARK  209  A    between atoms: _509  and  _510
REMARK  210  A    between atoms: _509  and  _512
REMARK  211  A    between atoms: _512  and  _513
REMARK  212  A    between atoms: _518  and  _520
REMARK  213  A    between atoms: _520  and  _521
REMARK  214  A    between atoms: _520  and  _523
REMARK  215  A    between atoms: _523  and  _524
REMARK  216  A    between atoms: _527  and  _529
REMARK  217  A    between atoms: _529  and  _530
REMARK  218  A    between atoms: _529  and  _532
REMARK  219  A    between atoms: _532  and  _533
REMARK  220  A    between atoms: _536  and  _538
REMARK  221  A    between atoms: _538  and  _539
REMARK  222  A    between atoms: _541  and  _543
REMARK  223  A    between atoms: _543  and  _544
REMARK  224  A    between atoms: _543  and  _546
REMARK  225  A    between atoms: _546  and  _547
REMARK  226  A    between atoms: _547  and  _548
REMARK  227  A    between atoms: _548  and  _549
REMARK  228  A    between atoms: _558  and  _560
REMARK  229  A    between atoms: _560  and  _561
REMARK  230  A    between atoms: _560  and  _563
REMARK  231  A    between atoms: _563  and  _564
REMARK                            x       y       z     vdW  Elec       q    Type
REMARK                         _______ _______ _______ _____ _____    ______ ____
ROOT
ATOM      1  NE  ARG A   1      -5.787  12.441 -22.076  0.00  0.00    -0.265 N 
ATOM      2  HE  ARG A   1      -6.192  12.007 -21.222  0.00  0.00    +0.259 HD
ATOM      3  CZ  ARG A   1      -4.637  13.085 -21.926  0.00  0.00    +0.342 C 
ATOM      4  NH2 ARG A   1      -4.001  13.199 -20.753  0.00  0.00    -0.292 N 
ATOM      5 HH21 ARG A   1      -4.407  12.770 -19.897  0.00  0.00    +0.255 HD
ATOM      6 HH22 ARG A   1      -3.101  13.717 -20.698  0.00  0.00    +0.255 HD
ATOM      7  NH1 ARG A   1      -4.060  13.669 -22.986  0.00  0.00    -0.292 N 
ATOM      8 HH11 ARG A   1      -3.158  14.175 -22.874  0.00  0.00    +0.255 HD
ATOM      9 HH12 ARG A   1      -4.514  13.616 -23.920  0.00  0.00    +0.255 HD
ENDROOT
BRANCH   1  10
ATOM     10  CD  ARG A   1      -6.547  12.277 -23.320  0.00  0.00    +0.174 C 
BRANCH  10  11
ATOM     11  CG  ARG A   1      -7.546  11.145 -23.242  0.00  0.00    +0.045 C 
BRANCH  11  12
ATOM     12  CB  ARG A   1      -8.317  10.914 -24.528  0.00  0.00    +0.029 C 
BRANCH  12  13
ATOM     13  CA  ARG A   1      -9.336   9.777 -24.378  0.00  0.00    +0.133 C 
BRANCH  13  14
ATOM     14  N   ARG A   1      -8.634   8.506 -24.227  0.00  0.00    -0.239 NA
ATOM     15  H   ARG A   1      -7.594   8.501 -24.214  0.00  0.00    +0.142 HD
ENDBRANCH  13  14
BRANCH  13  16
ATOM     16  C   ARG A   1     -10.271   9.765 -25.591  0.00  0.00    +0.224 C 
ATOM     17  O   ARG A   1      -9.839   9.340 -26.684  0.00  0.00    -0.287 OA
ENDBRANCH  13  16
ENDBRANCH  12  13
ENDBRANCH  11  12
ENDBRANCH  10  11
ENDBRANCH   1  10
TORSDOF 6
REMARK  Name = ../refined-set-2016/3cyw/3cyw_pocket.pdb
REMARK  231 active torsions:
REMARK  status: ('A' for Active; 'I' for Inactive)
REMARK    1  A    between atoms: _1  and  _3
REMARK    2  A    between atoms: _3  and  _4
REMARK    3  A    between atoms: _3  and  _6
REMARK    4  A    between atoms: _6  and  _7
REMARK    5  A    between atoms: _7  and  _8
REMARK    6  A    between atoms: _8  and  _9
REMARK    7  A    between atoms: _18  and  _20
REMARK    8  A    between atoms: _20  and  _21
REMARK    9  A    between atoms: _20  and  _23
REMARK   10  A    between atoms: _23  and  _24
REMARK   11  A    between atoms: _27  and  _29
REMARK   12  A    between atoms: _29  and  _30
REMARK   13  A    between atoms: _29  and  _32
REMARK   14  A    between atoms: _32  and  _33
REMARK   15  A    between atoms: _36  and  _38
REMARK   16  A    between atoms: _38  and  _39
REMARK   17  A    between atoms: _38  and  _41
REMARK   18  A    between atoms: _41  and  _42
REMARK   19  A    between atoms: _45  and  _47
REMARK   20  A    between atoms: _47  and  _48
REMARK   21  A    between atoms: _47  and  _50
REMARK   22  A    between atoms: _50  and  _51
REMARK   23  A    between atoms: _54  and  _56
REMARK   24  A    between atoms: _56  and  _57
REMARK   25  A    between atoms: _59  and  _61
REMARK   26  A    between atoms: _61  and  _62
REMARK   27  A    between atoms: _65  and  _67
REMARK   28  A    between atoms: _67  and  _68
REMARK   29  A    between atoms: _67  and  _70
REMARK   30  A    between atoms: _70  and  _71
REMARK   31  A    between atoms: _74  and  _76
REMARK   32  A    between atoms: _76  and  _77
REMARK   33  A    between atoms: _76  and  _79
REMARK   34  A    between atoms: _79  and  _80
REMARK   35  A    between atoms: _83  and  _85
REMARK   36  A    between atoms: _85  and  _86
REMARK   37  A    between atoms: _85  and  _88
REMARK   38  A    between atoms: _88  and  _89
REMARK   39  A    between atoms: _92  and  _94
REMARK   40  A    between atoms: _94  and  _95
REMARK   41  A    between atoms: _94  and  _97
REMARK   42  A    between atoms: _100  and  _102
REMARK   43  A    between atoms: _102  and  _103
REMARK   44  A    between atoms: _102  and  _105
REMARK   45  A    between atoms: _105  and  _106
REMARK   46  A    between atoms: _109  and  _111
REMARK   47  A    between atoms: _111  and  _112
REMARK   48  A    between atoms: _111  and  _114
REMARK   49  A    between atoms: _115  and  _116
REMARK   50  A    between atoms: _116  and  _117
REMARK   51  A    between atoms: _117  and  _118
REMARK   52  A    between atoms: _122  and  _124
REMARK   53  A    between atoms: _124  and  _125
REMARK   54  A    between atoms: _124  and  _127
REMARK   55  A    between atoms: _127  and  _128
REMARK   56  A    between atoms: _128  and  _129
REMARK   57  A    between atoms: _131  and  _133
REMARK   58  A    between atoms: _133  and  _134
REMARK   59  A    between atoms: _133  and  _136
REMARK   60  A    between atoms: _136  and  _137
REMARK   61  A    between atoms: _140  and  _142
REMARK   62  A    between atoms: _142  and  _143
REMARK   63  A    between atoms: _142  and  _145
REMARK   64  A    between atoms: _148  and  _150
REMARK   65  A    between atoms: _150  and  _151
REMARK   66  A    between atoms: _153  and  _155
REMARK   67  A    between atoms: _155  and  _156
REMARK   68  A    between atoms: _155  and  _158
REMARK   69  A    between atoms: _158  and  _159
REMARK   70  A    between atoms: _162  and  _164
REMARK   71  A    between atoms: _164  and  _165
REMARK   72  A    between atoms: _167  and  _169
REMARK   73  A    between atoms: _169  and  _170
REMARK   74  A    between atoms: _172  and  _174
REMARK   75  A    between atoms: _174  and  _175
REMARK   76  A    between atoms: _174  and  _177
REMARK   77  A    between atoms: _177  and  _178
REMARK   78  A    between atoms: _184  and  _186
REMARK   79  A    between atoms: _186  and  _187
REMARK   80  A    between atoms: _186  and  _189
REMARK   81  A    between atoms: _189  and  _190
REMARK   82  A    between atoms: _193  and  _195
REMARK   83  A    between atoms: _195  and  _196
REMARK   84  A    between atoms: _195  and  _198
REMARK   85  A    between atoms: _201  and  _203
REMARK   86  A    between atoms: _203  and  _204
REMARK   87  A    between atoms: _203  and  _206
REMARK   88  A    between atoms: _206  and  _207
REMARK   89  A    between atoms: _211  and  _212
REMARK   90  A    between atoms: _217  and  _219
REMARK   91  A    between atoms: _219  and  _220
REMARK   92  A    between atoms: _219  and  _222
REMARK   93  A    between atoms: _222  and  _223
REMARK   94  A    between atoms: _227  and  _228
REMARK   95  A    between atoms: _233  and  _235
REMARK   96  A    between atoms: _235  and  _236
REMARK   97  A    between atoms: _235  and  _238
REMARK   98  A    between atoms: _241  and  _243
REMARK   99  A    between atoms: _243  and  _244
REMARK  100  A    between atoms: _243  and  _246
REMARK  101  A    between atoms: _246  and  _247
REMARK  102  A    between atoms: _252  and  _254
REMARK  103  A    between atoms: _254  and  _255
REMARK  104  A    between atoms: _254  and  _257
REMARK  105  A    between atoms: _257  and  _258
REMARK  106  A    between atoms: _261  and  _263
REMARK  107  A    between atoms: _263  and  _264
REMARK  108  A    between atoms: _263  and  _266
REMARK  109  A    between atoms: _266  and  _267
REMARK  110  A    between atoms: _270  and  _272
REMARK  111  A    between atoms: _272  and  _273
REMARK  112  A    between atoms: _275  and  _277
REMARK  113  A    between atoms: _277  and  _278
REMARK  114  A    between atoms: _277  and  _280
REMARK  115  A    between atoms: _280  and  _281
REMARK  116  A    between atoms: _281  and  _282
REMARK  117  A    between atoms: _282  and  _283
REMARK  118  A    between atoms: _292  and  _294
REMARK  119  A    between atoms: _294  and  _295
REMARK  120  A    between atoms: _294  and  _297
REMARK  121  A    between atoms: _297  and  _298
REMARK  122  A    between atoms: _303  and  _305
REMARK  123  A    between atoms: _305  and  _306
REMARK  124  A    between atoms: _305  and  _308
REMARK  125  A    between atoms: _308  and  _309
REMARK  126  A    between atoms: _309  and  _310
REMARK  127  A    between atoms: _310  and  _311
REMARK  128  A    between atoms: _320  and  _322
REMARK  129  A    between atoms: _322  and  _323
REMARK  130  A    between atoms: _322  and  _325
REMARK  131  A    between atoms: _325  and  _326
REMARK  132  A    between atoms: _329  and  _331
REMARK  133  A    between atoms: _331  and  _332
REMARK  134  A    between atoms: _331  and  _334
REMARK  135  A    between atoms: _334  and  _335
REMARK  136  A    between atoms: _338  and  _340
REMARK  137  A    between atoms: _340  and  _341
REMARK  138  A    between atoms: _340  and  _343
REMARK  139  A    between atoms: _343  and  _344
REMARK  140  A    between atoms: _347  and  _349
REMARK  141  A    between atoms: _349  and  _350
REMARK  142  A    between atoms: _349  and  _352
REMARK  143  A    between atoms: _352  and  _353
REMARK  144  A    between atoms: _356  and  _358
REMARK  145  A    between atoms: _358  and  _359
REMARK  146  A    between atoms: _361  and  _363
REMARK  147  A    between atoms: _363  and  _364
REMARK  148  A    between atoms: _367  and  _369
REMARK  149  A    between atoms: _369  and  _370
REMARK  150  A    between atoms: _369  and  _372
REMARK  151  A    between atoms: _372  and  _373
REMARK  152  A    between atoms: _376  and  _378
REMARK  153  A    between atoms: _378  and  _379
REMARK  154  A    between atoms: _378  and  _381
REMARK  155  A    between atoms: _381  and  _382
REMARK  156  A    between atoms: _385  and  _387
REMARK  157  A    between atoms: _387  and  _388
REMARK  158  A    between atoms: _387  and  _390
REMARK  159  A    between atoms: _390  and  _391
REMARK  160  A    between atoms: _394  and  _396
REMARK  161  A    between atoms: _396  and  _397
REMARK  162  A    between atoms: _396  and  _399
REMARK  163  A    between atoms: _402  and  _404
REMARK  164  A    between atoms: _404  and  _405
REMARK  165  A    between atoms: _404  and  _407
REMARK  166  A    between atoms: _407  and  _408
REMARK  167  A    between atoms: _408  and  _409
REMARK  168  A    between atoms: _409  and  _410
REMARK  169  A    between atoms: _410  and  _411
REMARK  170  A    between atoms: _415  and  _417
REMARK  171  A    between atoms: _417  and  _418
REMARK  172  A    between atoms: _417  and  _420
REMARK  173  A    between atoms: _420  and  _421
REMARK  174  A    between atoms: _421  and  _422
REMARK  175  A    between atoms: _424  and  _426
REMARK  176  A    between atoms: _426  and  _427
REMARK  177  A    between atoms: _426  and  _429
REMARK  178  A    between atoms: _429  and  _430
REMARK  179  A    between atoms: _433  and  _435
REMARK  180  A    between atoms: _435  and  _436
REMARK  181  A    between atoms: _435  and  _438
REMARK  182  A    between atoms: _441  and  _443
REMARK  183  A    between atoms: _443  and  _444
REMARK  184  A    between atoms: _446  and  _448
REMARK  185  A    between atoms: _448  and  _449
REMARK  186  A    between atoms: _448  and  _451
REMARK  187  A    between atoms: _451  and  _452
REMARK  188  A    between atoms: _455  and  _457
REMARK  189  A    between atoms: _457  and  _458
REMARK  190  A    between atoms: _460  and  _462
REMARK  191  A    between atoms: _462  and  _463
REMARK  192  A    between atoms: _465  and  _467
REMARK  193  A    between atoms: _467  and  _468
REMARK  194  A    between atoms: _467  and  _470
REMARK  195  A    between atoms: _470  and  _471
REMARK  196  A    between atoms: _474  and  _476
REMARK  197  A    between atoms: _476  and  _477
REMARK  198  A    between atoms: _476  and  _479
REMARK  199  A    between atoms: _479  and  _480
REMARK  200  A    between atoms: _483  and  _485
REMARK  201  A    between atoms: _485  and  _486
REMARK  202  A    between atoms: _485  and  _488
REMARK  203  A    between atoms: _488  and  _489
REMARK  204  A    between atoms: _493  and  _494
REMARK  205  A    between atoms: _499  and  _501
REMARK  206  A    between atoms: _501  and  _502
REMARK  207  A    between atoms: _501  and  _504
REMARK  208  A    between atoms: _507  and  _509
REMARK  209  A    between atoms: _509  and  _510
REMARK  210  A    between atoms: _509  and  _512
REMARK  211  A    between atoms: _512  and  _513
REMARK  212  A    between atoms: _518  and  _520
REMARK  213  A    between atoms: _520  and  _521
REMARK  214  A    between atoms: _520  and  _523
REMARK  215  A    between atoms: _523  and  _524
REMARK  216  A    between atoms: _527  and  _529
REMARK  217  A    between atoms: _529  and  _530
REMARK  218  A    between atoms: _529  and  _532
REMARK  219  A    between atoms: _532  and  _533
REMARK  220  A    between atoms: _536  and  _538
REMARK  221  A    between atoms: _538  and  _539
REMARK  222  A    between atoms: _541  and  _543
REMARK  223  A    between atoms: _543  and  _544
REMARK  224  A    between atoms: _543  and  _546
REMARK  225  A    between atoms: _546  and  _547
REMARK  226  A    between atoms: _547  and  _548
REMARK  227  A    between atoms: _548  and  _549
REMARK  228  A    between atoms: _558  and  _560
REMARK  229  A    between atoms: _560  and  _561
REMARK  230  A    between atoms: _560  and  _563
REMARK  231  A    between atoms: _563  and  _564
REMARK                            x       y       z     vdW  Elec       q    Type
REMARK                         _______ _______ _______ _____ _____    ______ ____
ROOT
ATOM      1  C   GLY A   5     -18.396  18.864 -18.469  0.00  0.00    +0.243 C 
ATOM      2  O   GLY A   5     -18.330  19.719 -17.569  0.00  0.00    -0.273 OA
ATOM      3  N   ALA A   6     -18.415  19.187 -19.747  0.00  0.00    -0.297 N 
ATOM      4  H   ALA A   6     -18.467  18.428 -20.456  0.00  0.00    +0.150 HD
ENDROOT
BRANCH   3   5
ATOM      5  CA  ALA A   6     -18.366  20.579 -20.202  0.00  0.00    +0.149 C 
ATOM      6  CB  ALA A   6     -17.293  20.674 -21.280  0.00  0.00    +0.031 C 
BRANCH   5   7
ATOM      7  C   ALA A   6     -19.731  21.022 -20.678  0.00  0.00    +0.241 C 
ATOM      8  N   ASP A   7     -20.258  22.140 -20.182  0.00  0.00    -0.297 N 
ATOM      9  H   ASP A   7     -19.765  22.643 -19.417  0.00  0.00    +0.150 HD
ATOM     10  O   ALA A   6     -20.311  20.357 -21.558  0.00  0.00    -0.273 OA
BRANCH   8  11
ATOM     11  CA  ASP A   7     -21.505  22.666 -20.691  0.00  0.00    +0.160 C 
BRANCH  11  12
ATOM     12  C   ASP A   7     -21.307  23.157 -22.130  0.00  0.00    +0.241 C 
ATOM     13  N   ASP A   8     -20.153  23.776 -22.377  0.00  0.00    -0.297 N 
ATOM     14  H   ASP A   8     -19.411  23.709 -21.651  0.00  0.00    +0.150 HD
ATOM     15  O   ASP A   7     -22.200  23.038 -22.952  0.00  0.00    -0.273 OA
BRANCH  13  16
ATOM     16  CA  ASP A   8     -19.846  24.535 -23.573  0.00  0.00    +0.160 C 
BRANCH  16  17
ATOM     17  C   ASP A   8     -18.608  23.959 -24.277  0.00  0.00    +0.241 C 
ATOM     18  O   ASP A   8     -17.781  23.305 -23.639  0.00  0.00    -0.273 OA
ATOM     19  N   THR A   9     -18.540  24.203 -25.556  0.00  0.00    -0.295 N 
ATOM     20  H   THR A   9     -19.356  24.696 -25.971  0.00  0.00    +0.150 HD
BRANCH  19  21
ATOM     21  CA  THR A   9     -17.455  23.868 -26.479  0.00  0.00    +0.176 C 
BRANCH  21  22
ATOM     22  C   THR A   9     -16.422  24.976 -26.474  0.00  0.00    +0.243 C 
ATOM     23  N   VAL A  10     -15.171  24.604 -26.247  0.00  0.00    -0.298 N 
ATOM     24  H   VAL A  10     -14.944  23.592 -26.166  0.00  0.00    +0.150 HD
ATOM     25  O   THR A   9     -16.814  26.154 -26.673  0.00  0.00    -0.273 OA
BRANCH  23  26
ATOM     26  CA  VAL A  10     -14.111  25.590 -26.110  0.00  0.00    +0.137 C 
BRANCH  26  27
ATOM     27  CB  VAL A  10     -13.635  25.803 -24.637  0.00  0.00    +0.026 C 
ATOM     28  CG2 VAL A  10     -14.749  25.900 -23.617  0.00  0.00    +0.002 C 
ATOM     29  CG1 VAL A  10     -12.735  27.050 -24.655  0.00  0.00    +0.002 C 
ENDBRANCH  26  27
BRANCH  26  30
ATOM     30  C   VAL A  10     -12.933  25.128 -26.978  0.00  0.00    +0.227 C 
ATOM     31  O   VAL A  10     -12.459  23.988 -26.812  0.00  0.00    -0.286 OA
ENDBRANCH  26  30
ENDBRANCH  23  26
ENDBRANCH  21  22
BRANCH  21  32
ATOM     32  CB  THR A   9     -18.041  23.643 -27.880  0.00  0.00    +0.137 C 
ATOM     33  CG2 THR A   9     -16.941  23.427 -28.889  0.00  0.00    +0.034 C 
BRANCH  32  34
ATOM     34  OG1 THR A   9     -18.882  22.490 -27.834  0.00  0.00    -0.382 OA
ATOM     35  HG1 THR A   9     -19.269  22.330 -28.731  0.00  0.00    +0.210 HD
ENDBRANCH  32  34
ENDBRANCH  21  32
ENDBRANCH  19  21
ENDBRANCH  16  17
BRANCH  16  36
ATOM     36  CB  ASP A   8     -19.549  25.974 -23.203  0.00  0.00    +0.143 C 
BRANCH  36  37
ATOM     37  CG  ASP A   8     -20.506  26.615 -22.208  0.00  0.00    +0.367 C 
ATOM     38  OD2 ASP A   8     -20.087  27.263 -21.187  0.00  0.00    -0.246 OA
ATOM     39  OD1 ASP A   8     -21.748  26.498 -22.423  0.00  0.00    -0.246 OA
ENDBRANCH  36  37
ENDBRANCH  16  36
ENDBRANCH  13  16
ENDBRANCH  11  12
BRANCH  11  40
ATOM     40  CB  ASP A   7     -21.969  23.838 -19.844  0.00  0.00    +0.143 C 
BRANCH  40  41
ATOM     41  CG  ASP A   7     -22.265  23.621 -18.377  0.00  0.00    +0.367 C 
ATOM     42  OD2 ASP A   7     -22.360  24.609 -17.584  0.00  0.00    -0.246 OA
ATOM     43  OD1 ASP A   7     -22.449  22.430 -17.974  0.00  0.00    -0.246 OA
ENDBRANCH  40  41
ENDBRANCH  11  40
ENDBRANCH   8  11
ENDBRANCH   5   7
ENDBRANCH   3   5
BRANCH   1  44
ATOM     44  CA  GLY A   5     -18.454  17.392 -18.109  0.00  0.00    +0.176 C 
BRANCH  44  46
ATOM     45  C   THR A   4     -19.742  16.218 -19.822  0.00  0.00    +0.243 C 
ATOM     46  N   GLY A   5     -18.588  16.499 -19.225  0.00  0.00    -0.295 N 
ATOM     47  H   GLY A   5     -17.727  16.043 -19.590  0.00  0.00    +0.150 HD
ATOM     48  O   THR A   4     -20.793  16.673 -19.419  0.00  0.00    -0.273 OA
BRANCH  45  49
ATOM     49  CA  THR A   4     -19.746  15.326 -21.030  0.00  0.00    +0.176 C 
BRANCH  49  51
ATOM     50  C   ASP A   3     -17.879  16.320 -22.261  0.00  0.00    +0.241 C 
ATOM     51  N   THR A   4     -18.412  15.248 -21.658  0.00  0.00    -0.295 N 
ATOM     52  H   THR A   4     -17.881  14.354 -21.632  0.00  0.00    +0.150 HD
ATOM     53  O   ASP A   3     -18.410  17.431 -22.290  0.00  0.00    -0.273 OA
BRANCH  50  54
ATOM     54  CA  ASP A   3     -16.518  16.102 -22.905  0.00  0.00    +0.160 C 
BRANCH  54  57
ATOM     55  C   LEU A   2     -15.925  14.772 -24.845  0.00  0.00    +0.241 C 
ATOM     56  O   LEU A   2     -15.477  13.830 -24.179  0.00  0.00    -0.273 OA
ATOM     57  N   ASP A   3     -16.549  15.833 -24.334  0.00  0.00    -0.297 N 
ATOM     58  H   ASP A   3     -17.065  16.478 -24.966  0.00  0.00    +0.150 HD
BRANCH  55  59
ATOM     59  CA  LEU A   2     -15.751  14.723 -26.349  0.00  0.00    +0.149 C 
BRANCH  59  62
ATOM     60  C   LEU A   1     -13.629  15.878 -26.570  0.00  0.00    +0.238 C 
ATOM     61  O   LEU A   1     -14.175  16.963 -26.311  0.00  0.00    -0.274 OA
ATOM     62  N   LEU A   2     -14.321  14.744 -26.680  0.00  0.00    -0.297 N 
ATOM     63  H   LEU A   2     -13.848  13.875 -27.000  0.00  0.00    +0.150 HD
BRANCH  60  64
ATOM     64  CA  LEU A   1     -12.114  15.808 -26.762  0.00  0.00    +0.145 C 
BRANCH  64  65
ATOM     65  N   LEU A   1     -11.707  16.733 -27.796  0.00  0.00    -0.238 NA
ATOM     66  H   LEU A   1     -11.531  17.717 -27.510  0.00  0.00    +0.142 HD
ENDBRANCH  64  65
BRANCH  64  67
ATOM     67  CB  LEU A   1     -11.360  16.185 -25.486  0.00  0.00    +0.026 C 
BRANCH  67  68
ATOM     68  CG  LEU A   1     -11.451  15.364 -24.233  0.00  0.00    +0.002 C 
ATOM     69  CD2 LEU A   1     -10.798  16.103 -23.064  0.00  0.00    +0.000 C 
ATOM     70  CD1 LEU A   1     -10.770  14.045 -24.550  0.00  0.00    +0.000 C 
ENDBRANCH  67  68
ENDBRANCH  64  67
ENDBRANCH  60  64
ENDBRANCH  59  62
BRANCH  59  71
ATOM     71  CB  LEU A   2     -16.418  13.496 -26.919  0.00  0.00    +0.029 C 
BRANCH  71  72
ATOM     72  CG  LEU A   2     -16.309  13.306 -28.428  0.00  0.00    +0.002 C 
ATOM     73  CD2 LEU A   2     -17.000  11.994 -28.825  0.00  0.00    +0.000 C 
ATOM     74  CD1 LEU A   2     -16.872  14.502 -29.179  0.00  0.00    +0.000 C 
ENDBRANCH  71  72
ENDBRANCH  59  71
ENDBRANCH  55  59
ENDBRANCH  54  57
BRANCH  54  75
ATOM     75  CB  ASP A   3     -15.609  17.324 -22.672  0.00  0.00    +0.143 C 
BRANCH  75  76
ATOM     76  CG  ASP A   3     -15.263  17.573 -21.231  0.00  0.00    +0.367 C 
ATOM     77  OD2 ASP A   3     -15.832  16.875 -20.340  0.00  0.00    -0.246 OA
ATOM     78  OD1 ASP A   3     -14.451  18.501 -20.963  0.00  0.00    -0.246 OA
ENDBRANCH  75  76
ENDBRANCH  54  75
ENDBRANCH  50  54
ENDBRANCH  49  51
BRANCH  49  79
ATOM     79  CB  THR A   4     -20.262  13.943 -20.641  0.00  0.00    +0.137 C 
ATOM     80  CG2 THR A   4     -20.456  13.072 -21.881  0.00  0.00    +0.034 C 
BRANCH  79  81
ATOM     81  OG1 THR A   4     -19.329  13.276 -19.774  0.00  0.00    -0.382 OA
ATOM     82  HG1 THR A   4     -19.202  13.813 -18.952  0.00  0.00    +0.210 HD
ENDBRANCH  79  81
ENDBRANCH  49  79
ENDBRANCH  45  49
ENDBRANCH  44  46
ENDBRANCH   1  44
TORSDOF 35
REMARK  Name = ../refined-set-2016/3cyw/3cyw_pocket.pdb
REMARK  231 active torsions:
REMARK  status: ('A' for Active; 'I' for Inactive)
REMARK    1  A    between atoms: _1  and  _3
REMARK    2  A    between atoms: _3  and  _4
REMARK    3  A    between atoms: _3  and  _6
REMARK    4  A    between atoms: _6  and  _7
REMARK    5  A    between atoms: _7  and  _8
REMARK    6  A    between atoms: _8  and  _9
REMARK    7  A    between atoms: _18  and  _20
REMARK    8  A    between atoms: _20  and  _21
REMARK    9  A    between atoms: _20  and  _23
REMARK   10  A    between atoms: _23  and  _24
REMARK   11  A    between atoms: _27  and  _29
REMARK   12  A    between atoms: _29  and  _30
REMARK   13  A    between atoms: _29  and  _32
REMARK   14  A    between atoms: _32  and  _33
REMARK   15  A    between atoms: _36  and  _38
REMARK   16  A    between atoms: _38  and  _39
REMARK   17  A    between atoms: _38  and  _41
REMARK   18  A    between atoms: _41  and  _42
REMARK   19  A    between atoms: _45  and  _47
REMARK   20  A    between atoms: _47  and  _48
REMARK   21  A    between atoms: _47  and  _50
REMARK   22  A    between atoms: _50  and  _51
REMARK   23  A    between atoms: _54  and  _56
REMARK   24  A    between atoms: _56  and  _57
REMARK   25  A    between atoms: _59  and  _61
REMARK   26  A    between atoms: _61  and  _62
REMARK   27  A    between atoms: _65  and  _67
REMARK   28  A    between atoms: _67  and  _68
REMARK   29  A    between atoms: _67  and  _70
REMARK   30  A    between atoms: _70  and  _71
REMARK   31  A    between atoms: _74  and  _76
REMARK   32  A    between atoms: _76  and  _77
REMARK   33  A    between atoms: _76  and  _79
REMARK   34  A    between atoms: _79  and  _80
REMARK   35  A    between atoms: _83  and  _85
REMARK   36  A    between atoms: _85  and  _86
REMARK   37  A    between atoms: _85  and  _88
REMARK   38  A    between atoms: _88  and  _89
REMARK   39  A    between atoms: _92  and  _94
REMARK   40  A    between atoms: _94  and  _95
REMARK   41  A    between atoms: _94  and  _97
REMARK   42  A    between atoms: _100  and  _102
REMARK   43  A    between atoms: _102  and  _103
REMARK   44  A    between atoms: _102  and  _105
REMARK   45  A    between atoms: _105  and  _106
REMARK   46  A    between atoms: _109  and  _111
REMARK   47  A    between atoms: _111  and  _112
REMARK   48  A    between atoms: _111  and  _114
REMARK   49  A    between atoms: _115  and  _116
REMARK   50  A    between atoms: _116  and  _117
REMARK   51  A    between atoms: _117  and  _118
REMARK   52  A    between atoms: _122  and  _124
REMARK   53  A    between atoms: _124  and  _125
REMARK   54  A    between atoms: _124  and  _127
REMARK   55  A    between atoms: _127  and  _128
REMARK   56  A    between atoms: _128  and  _129
REMARK   57  A    between atoms: _131  and  _133
REMARK   58  A    between atoms: _133  and  _134
REMARK   59  A    between atoms: _133  and  _136
REMARK   60  A    between atoms: _136  and  _137
REMARK   61  A    between atoms: _140  and  _142
REMARK   62  A    between atoms: _142  and  _143
REMARK   63  A    between atoms: _142  and  _145
REMARK   64  A    between atoms: _148  and  _150
REMARK   65  A    between atoms: _150  and  _151
REMARK   66  A    between atoms: _153  and  _155
REMARK   67  A    between atoms: _155  and  _156
REMARK   68  A    between atoms: _155  and  _158
REMARK   69  A    between atoms: _158  and  _159
REMARK   70  A    between atoms: _162  and  _164
REMARK   71  A    between atoms: _164  and  _165
REMARK   72  A    between atoms: _167  and  _169
REMARK   73  A    between atoms: _169  and  _170
REMARK   74  A    between atoms: _172  and  _174
REMARK   75  A    between atoms: _174  and  _175
REMARK   76  A    between atoms: _174  and  _177
REMARK   77  A    between atoms: _177  and  _178
REMARK   78  A    between atoms: _184  and  _186
REMARK   79  A    between atoms: _186  and  _187
REMARK   80  A    between atoms: _186  and  _189
REMARK   81  A    between atoms: _189  and  _190
REMARK   82  A    between atoms: _193  and  _195
REMARK   83  A    between atoms: _195  and  _196
REMARK   84  A    between atoms: _195  and  _198
REMARK   85  A    between atoms: _201  and  _203
REMARK   86  A    between atoms: _203  and  _204
REMARK   87  A    between atoms: _203  and  _206
REMARK   88  A    between atoms: _206  and  _207
REMARK   89  A    between atoms: _211  and  _212
REMARK   90  A    between atoms: _217  and  _219
REMARK   91  A    between atoms: _219  and  _220
REMARK   92  A    between atoms: _219  and  _222
REMARK   93  A    between atoms: _222  and  _223
REMARK   94  A    between atoms: _227  and  _228
REMARK   95  A    between atoms: _233  and  _235
REMARK   96  A    between atoms: _235  and  _236
REMARK   97  A    between atoms: _235  and  _238
REMARK   98  A    between atoms: _241  and  _243
REMARK   99  A    between atoms: _243  and  _244
REMARK  100  A    between atoms: _243  and  _246
REMARK  101  A    between atoms: _246  and  _247
REMARK  102  A    between atoms: _252  and  _254
REMARK  103  A    between atoms: _254  and  _255
REMARK  104  A    between atoms: _254  and  _257
REMARK  105  A    between atoms: _257  and  _258
REMARK  106  A    between atoms: _261  and  _263
REMARK  107  A    between atoms: _263  and  _264
REMARK  108  A    between atoms: _263  and  _266
REMARK  109  A    between atoms: _266  and  _267
REMARK  110  A    between atoms: _270  and  _272
REMARK  111  A    between atoms: _272  and  _273
REMARK  112  A    between atoms: _275  and  _277
REMARK  113  A    between atoms: _277  and  _278
REMARK  114  A    between atoms: _277  and  _280
REMARK  115  A    between atoms: _280  and  _281
REMARK  116  A    between atoms: _281  and  _282
REMARK  117  A    between atoms: _282  and  _283
REMARK  118  A    between atoms: _292  and  _294
REMARK  119  A    between atoms: _294  and  _295
REMARK  120  A    between atoms: _294  and  _297
REMARK  121  A    between atoms: _297  and  _298
REMARK  122  A    between atoms: _303  and  _305
REMARK  123  A    between atoms: _305  and  _306
REMARK  124  A    between atoms: _305  and  _308
REMARK  125  A    between atoms: _308  and  _309
REMARK  126  A    between atoms: _309  and  _310
REMARK  127  A    between atoms: _310  and  _311
REMARK  128  A    between atoms: _320  and  _322
REMARK  129  A    between atoms: _322  and  _323
REMARK  130  A    between atoms: _322  and  _325
REMARK  131  A    between atoms: _325  and  _326
REMARK  132  A    between atoms: _329  and  _331
REMARK  133  A    between atoms: _331  and  _332
REMARK  134  A    between atoms: _331  and  _334
REMARK  135  A    between atoms: _334  and  _335
REMARK  136  A    between atoms: _338  and  _340
REMARK  137  A    between atoms: _340  and  _341
REMARK  138  A    between atoms: _340  and  _343
REMARK  139  A    between atoms: _343  and  _344
REMARK  140  A    between atoms: _347  and  _349
REMARK  141  A    between atoms: _349  and  _350
REMARK  142  A    between atoms: _349  and  _352
REMARK  143  A    between atoms: _352  and  _353
REMARK  144  A    between atoms: _356  and  _358
REMARK  145  A    between atoms: _358  and  _359
REMARK  146  A    between atoms: _361  and  _363
REMARK  147  A    between atoms: _363  and  _364
REMARK  148  A    between atoms: _367  and  _369
REMARK  149  A    between atoms: _369  and  _370
REMARK  150  A    between atoms: _369  and  _372
REMARK  151  A    between atoms: _372  and  _373
REMARK  152  A    between atoms: _376  and  _378
REMARK  153  A    between atoms: _378  and  _379
REMARK  154  A    between atoms: _378  and  _381
REMARK  155  A    between atoms: _381  and  _382
REMARK  156  A    between atoms: _385  and  _387
REMARK  157  A    between atoms: _387  and  _388
REMARK  158  A    between atoms: _387  and  _390
REMARK  159  A    between atoms: _390  and  _391
REMARK  160  A    between atoms: _394  and  _396
REMARK  161  A    between atoms: _396  and  _397
REMARK  162  A    between atoms: _396  and  _399
REMARK  163  A    between atoms: _402  and  _404
REMARK  164  A    between atoms: _404  and  _405
REMARK  165  A    between atoms: _404  and  _407
REMARK  166  A    between atoms: _407  and  _408
REMARK  167  A    between atoms: _408  and  _409
REMARK  168  A    between atoms: _409  and  _410
REMARK  169  A    between atoms: _410  and  _411
REMARK  170  A    between atoms: _415  and  _417
REMARK  171  A    between atoms: _417  and  _418
REMARK  172  A    between atoms: _417  and  _420
REMARK  173  A    between atoms: _420  and  _421
REMARK  174  A    between atoms: _421  and  _422
REMARK  175  A    between atoms: _424  and  _426
REMARK  176  A    between atoms: _426  and  _427
REMARK  177  A    between atoms: _426  and  _429
REMARK  178  A    between atoms: _429  and  _430
REMARK  179  A    between atoms: _433  and  _435
REMARK  180  A    between atoms: _435  and  _436
REMARK  181  A    between atoms: _435  and  _438
REMARK  182  A    between atoms: _441  and  _443
REMARK  183  A    between atoms: _443  and  _444
REMARK  184  A    between atoms: _446  and  _448
REMARK  185  A    between atoms: _448  and  _449
REMARK  186  A    between atoms: _448  and  _451
REMARK  187  A    between atoms: _451  and  _452
REMARK  188  A    between atoms: _455  and  _457
REMARK  189  A    between atoms: _457  and  _458
REMARK  190  A    between atoms: _460  and  _462
REMARK  191  A    between atoms: _462  and  _463
REMARK  192  A    between atoms: _465  and  _467
REMARK  193  A    between atoms: _467  and  _468
REMARK  194  A    between atoms: _467  and  _470
REMARK  195  A    between atoms: _470  and  _471
REMARK  196  A    between atoms: _474  and  _476
REMARK  197  A    between atoms: _476  and  _477
REMARK  198  A    between atoms: _476  and  _479
REMARK  199  A    between atoms: _479  and  _480
REMARK  200  A    between atoms: _483  and  _485
REMARK  201  A    between atoms: _485  and  _486
REMARK  202  A    between atoms: _485  and  _488
REMARK  203  A    between atoms: _488  and  _489
REMARK  204  A    between atoms: _493  and  _494
REMARK  205  A    between atoms: _499  and  _501
REMARK  206  A    between atoms: _501  and  _502
REMARK  207  A    between atoms: _501  and  _504
REMARK  208  A    between atoms: _507  and  _509
REMARK  209  A    between atoms: _509  and  _510
REMARK  210  A    between atoms: _509  and  _512
REMARK  211  A    between atoms: _512  and  _513
REMARK  212  A    between atoms: _518  and  _520
REMARK  213  A    between atoms: _520  and  _521
REMARK  214  A    between atoms: _520  and  _523
REMARK  215  A    between atoms: _523  and  _524
REMARK  216  A    between atoms: _527  and  _529
REMARK  217  A    between atoms: _529  and  _530
REMARK  218  A    between atoms: _529  and  _532
REMARK  219  A    between atoms: _532  and  _533
REMARK  220  A    between atoms: _536  and  _538
REMARK  221  A    between atoms: _538  and  _539
REMARK  222  A    between atoms: _541  and  _543
REMARK  223  A    between atoms: _543  and  _544
REMARK  224  A    between atoms: _543  and  _546
REMARK  225  A    between atoms: _546  and  _547
REMARK  226  A    between atoms: _547  and  _548
REMARK  227  A    between atoms: _548  and  _549
REMARK  228  A    between atoms: _558  and  _560
REMARK  229  A    between atoms: _560  and  _561
REMARK  230  A    between atoms: _560  and  _563
REMARK  231  A    between atoms: _563  and  _564
REMARK                            x       y       z     vdW  Elec       q    Type
REMARK                         _______ _______ _______ _____ _____    ______ ____
ROOT
ATOM      1  C   ILE A   3     -15.035  29.734 -16.821  0.00  0.00    +0.241 C 
ATOM      2  N   VAL A   4     -15.589  28.884 -15.981  0.00  0.00    -0.297 N 
ATOM      3  H   VAL A   4     -16.525  28.489 -16.202  0.00  0.00    +0.150 HD
ATOM      4  O   ILE A   3     -13.884  30.142 -16.749  0.00  0.00    -0.273 OA
ENDROOT
BRANCH   2   5
ATOM      5  CA  VAL A   4     -14.924  28.485 -14.754  0.00  0.00    +0.149 C 
BRANCH   5   6
ATOM      6  C   VAL A   4     -14.729  26.972 -14.726  0.00  0.00    +0.241 C 
ATOM      7  N   GLY A   5     -13.504  26.543 -14.520  0.00  0.00    -0.295 N 
ATOM      8  H   GLY A   5     -12.700  27.197 -14.439  0.00  0.00    +0.150 HD
ATOM      9  O   VAL A   4     -15.709  26.219 -14.864  0.00  0.00    -0.273 OA
BRANCH   7  10
ATOM     10  CA  GLY A   5     -13.335  25.102 -14.412  0.00  0.00    +0.176 C 
BRANCH  10  11
ATOM     11  C   GLY A   5     -12.459  24.799 -13.209  0.00  0.00    +0.243 C 
ATOM     12  O   GLY A   5     -12.419  25.525 -12.229  0.00  0.00    -0.273 OA
ATOM     13  N   ILE A   6     -11.749  23.699 -13.348  0.00  0.00    -0.297 N 
ATOM     14  H   ILE A   6     -11.732  23.196 -14.258  0.00  0.00    +0.150 HD
BRANCH  13  15
ATOM     15  CA  ILE A   6     -10.992  23.196 -12.221  0.00  0.00    +0.149 C 
BRANCH  15  16
ATOM     16  C   ILE A   6      -9.984  24.162 -11.687  0.00  0.00    +0.241 C 
ATOM     17  O   ILE A   6      -9.797  24.286 -10.455  0.00  0.00    -0.273 OA
ATOM     18  N   GLY A   7      -9.256  24.893 -12.506  0.00  0.00    -0.295 N 
ATOM     19  H   GLY A   7      -9.425  24.903 -13.532  0.00  0.00    +0.150 HD
BRANCH  18  20
ATOM     20  CA  GLY A   7      -8.178  25.704 -11.877  0.00  0.00    +0.176 C 
BRANCH  20  21
ATOM     21  C   GLY A   7      -8.433  27.184 -11.690  0.00  0.00    +0.243 C 
ATOM     22  O   GLY A   7      -7.575  28.016 -11.326  0.00  0.00    -0.273 OA
ATOM     23  N   GLY A   8      -9.659  27.615 -11.960  0.00  0.00    -0.296 N 
ATOM     24  H   GLY A   8     -10.365  26.906 -12.241  0.00  0.00    +0.150 HD
BRANCH  23  25
ATOM     25  CA  GLY A   8     -10.086  28.984 -11.894  0.00  0.00    +0.163 C 
BRANCH  25  26
ATOM     26  C   GLY A   8     -10.852  29.307 -13.174  0.00  0.00    +0.229 C 
ATOM     27  O   GLY A   8     -11.602  28.514 -13.687  0.00  0.00    -0.286 OA
ENDBRANCH  25  26
ENDBRANCH  23  25
ENDBRANCH  20  21
ENDBRANCH  18  20
ENDBRANCH  15  16
BRANCH  15  28
ATOM     28  CB  ILE A   6     -10.324  21.849 -12.533  0.00  0.00    +0.027 C 
ATOM     29  CG2 ILE A   6      -8.829  21.838 -12.738  0.00  0.00    +0.002 C 
BRANCH  28  30
ATOM     30  CG1 ILE A   6     -10.717  20.892 -11.393  0.00  0.00    +0.002 C 
ATOM     31  CD1 ILE A   6     -10.285  19.475 -11.676  0.00  0.00    +0.000 C 
ENDBRANCH  28  30
ENDBRANCH  15  28
ENDBRANCH  13  15
ENDBRANCH  10  11
ENDBRANCH   7  10
ENDBRANCH   5   6
BRANCH   5  32
ATOM     32  CB  VAL A   4     -15.705  28.862 -13.479  0.00  0.00    +0.027 C 
ATOM     33  CG2 VAL A   4     -14.880  28.653 -12.214  0.00  0.00    +0.002 C 
ATOM     34  CG1 VAL A   4     -16.966  28.016 -13.345  0.00  0.00    +0.002 C 
ENDBRANCH   5  32
ENDBRANCH   2   5
BRANCH   1  35
ATOM     35  CA  ILE A   3     -15.956  30.143 -17.947  0.00  0.00    +0.149 C 
BRANCH  35  38
ATOM     36  C   MET A   2     -16.506  32.452 -18.304  0.00  0.00    +0.241 C 
ATOM     37  O   MET A   2     -17.683  32.244 -18.032  0.00  0.00    -0.273 OA
ATOM     38  N   ILE A   3     -15.586  31.506 -18.328  0.00  0.00    -0.297 N 
ATOM     39  H   ILE A   3     -14.611  31.727 -18.614  0.00  0.00    +0.150 HD
BRANCH  36  40
ATOM     40  CA  MET A   2     -16.010  33.864 -18.604  0.00  0.00    +0.149 C 
BRANCH  40  42
ATOM     41  C   LYS A   1     -16.649  34.758 -20.783  0.00  0.00    +0.238 C 
ATOM     42  N   MET A   2     -16.967  34.466 -19.531  0.00  0.00    -0.297 N 
ATOM     43  H   MET A   2     -17.930  34.672 -19.196  0.00  0.00    +0.150 HD
ATOM     44  O   LYS A   1     -15.511  34.738 -21.215  0.00  0.00    -0.274 OA
BRANCH  41  45
ATOM     45  CA  LYS A   1     -17.805  35.159 -21.691  0.00  0.00    +0.145 C 
BRANCH  45  46
ATOM     46  N   LYS A   1     -17.403  36.226 -22.578  0.00  0.00    -0.238 NA
ATOM     47  H   LYS A   1     -16.394  36.347 -22.798  0.00  0.00    +0.142 HD
ENDBRANCH  45  46
BRANCH  45  48
ATOM     48  CB  LYS A   1     -18.321  33.937 -22.493  0.00  0.00    +0.026 C 
BRANCH  48  49
ATOM     49  CG  LYS A   1     -19.290  33.127 -21.615  0.00  0.00    -0.000 C 
BRANCH  49  50
ATOM     50  CD  LYS A   1     -19.788  31.870 -22.206  0.00  0.00    -0.024 C 
BRANCH  50  51
ATOM     51  CE  LYS A   1     -20.216  30.870 -21.150  0.00  0.00    -0.086 C 
BRANCH  51  52
ATOM     52  NZ  LYS A   1     -21.640  31.035 -20.763  0.00  0.00    +0.380 N 
ATOM     53  HZ1 LYS A   1     -21.885  30.330 -20.039  0.00  0.00    -0.089 HD
ATOM     54  HZ2 LYS A   1     -21.785  31.991 -20.380  0.00  0.00    -0.089 HD
ATOM     55  HZ3 LYS A   1     -22.243  30.900 -21.599  0.00  0.00    -0.089 HD
ENDBRANCH  51  52
ENDBRANCH  50  51
ENDBRANCH  49  50
ENDBRANCH  48  49
ENDBRANCH  45  48
ENDBRANCH  41  45
ENDBRANCH  40  42
BRANCH  40  56
ATOM     56  CB  MET A   2     -15.835  34.694 -17.342  0.00  0.00    +0.041 C 
BRANCH  56  57
ATOM     57  CG  MET A   2     -14.521  35.479 -17.329  0.00  0.00    +0.060 C 
BRANCH  57  58
ATOM     58  SD  MET A   2     -14.512  36.662 -15.983  0.00  0.00    -0.139 S 
ATOM     59  CE  MET A   2     -15.400  35.763 -14.706  0.00  0.00    +0.069 C 
ENDBRANCH  57  58
ENDBRANCH  56  57
ENDBRANCH  40  56
ENDBRANCH  36  40
ENDBRANCH  35  38
BRANCH  35  60
ATOM     60  CB  ILE A   3     -15.863  29.123 -19.091  0.00  0.00    +0.027 C 
ATOM     61  CG2 ILE A   3     -16.922  29.415 -20.136  0.00  0.00    +0.002 C 
BRANCH  60  62
ATOM     62  CG1 ILE A   3     -14.448  29.049 -19.670  0.00  0.00    +0.002 C 
ATOM     63  CD1 ILE A   3     -14.373  28.067 -20.831  0.00  0.00    +0.000 C 
ENDBRANCH  60  62
ENDBRANCH  35  60
ENDBRANCH   1  35
TORSDOF 29
REMARK  Name = ../refined-set-2016/3cyw/3cyw_pocket.pdb
REMARK  231 active torsions:
REMARK  status: ('A' for Active; 'I' for Inactive)
REMARK    1  A    between atoms: _1  and  _3
REMARK    2  A    between atoms: _3  and  _4
REMARK    3  A    between atoms: _3  and  _6
REMARK    4  A    between atoms: _6  and  _7
REMARK    5  A    between atoms: _7  and  _8
REMARK    6  A    between atoms: _8  and  _9
REMARK    7  A    between atoms: _18  and  _20
REMARK    8  A    between atoms: _20  and  _21
REMARK    9  A    between atoms: _20  and  _23
REMARK   10  A    between atoms: _23  and  _24
REMARK   11  A    between atoms: _27  and  _29
REMARK   12  A    between atoms: _29  and  _30
REMARK   13  A    between atoms: _29  and  _32
REMARK   14  A    between atoms: _32  and  _33
REMARK   15  A    between atoms: _36  and  _38
REMARK   16  A    between atoms: _38  and  _39
REMARK   17  A    between atoms: _38  and  _41
REMARK   18  A    between atoms: _41  and  _42
REMARK   19  A    between atoms: _45  and  _47
REMARK   20  A    between atoms: _47  and  _48
REMARK   21  A    between atoms: _47  and  _50
REMARK   22  A    between atoms: _50  and  _51
REMARK   23  A    between atoms: _54  and  _56
REMARK   24  A    between atoms: _56  and  _57
REMARK   25  A    between atoms: _59  and  _61
REMARK   26  A    between atoms: _61  and  _62
REMARK   27  A    between atoms: _65  and  _67
REMARK   28  A    between atoms: _67  and  _68
REMARK   29  A    between atoms: _67  and  _70
REMARK   30  A    between atoms: _70  and  _71
REMARK   31  A    between atoms: _74  and  _76
REMARK   32  A    between atoms: _76  and  _77
REMARK   33  A    between atoms: _76  and  _79
REMARK   34  A    between atoms: _79  and  _80
REMARK   35  A    between atoms: _83  and  _85
REMARK   36  A    between atoms: _85  and  _86
REMARK   37  A    between atoms: _85  and  _88
REMARK   38  A    between atoms: _88  and  _89
REMARK   39  A    between atoms: _92  and  _94
REMARK   40  A    between atoms: _94  and  _95
REMARK   41  A    between atoms: _94  and  _97
REMARK   42  A    between atoms: _100  and  _102
REMARK   43  A    between atoms: _102  and  _103
REMARK   44  A    between atoms: _102  and  _105
REMARK   45  A    between atoms: _105  and  _106
REMARK   46  A    between atoms: _109  and  _111
REMARK   47  A    between atoms: _111  and  _112
REMARK   48  A    between atoms: _111  and  _114
REMARK   49  A    between atoms: _115  and  _116
REMARK   50  A    between atoms: _116  and  _117
REMARK   51  A    between atoms: _117  and  _118
REMARK   52  A    between atoms: _122  and  _124
REMARK   53  A    between atoms: _124  and  _125
REMARK   54  A    between atoms: _124  and  _127
REMARK   55  A    between atoms: _127  and  _128
REMARK   56  A    between atoms: _128  and  _129
REMARK   57  A    between atoms: _131  and  _133
REMARK   58  A    between atoms: _133  and  _134
REMARK   59  A    between atoms: _133  and  _136
REMARK   60  A    between atoms: _136  and  _137
REMARK   61  A    between atoms: _140  and  _142
REMARK   62  A    between atoms: _142  and  _143
REMARK   63  A    between atoms: _142  and  _145
REMARK   64  A    between atoms: _148  and  _150
REMARK   65  A    between atoms: _150  and  _151
REMARK   66  A    between atoms: _153  and  _155
REMARK   67  A    between atoms: _155  and  _156
REMARK   68  A    between atoms: _155  and  _158
REMARK   69  A    between atoms: _158  and  _159
REMARK   70  A    between atoms: _162  and  _164
REMARK   71  A    between atoms: _164  and  _165
REMARK   72  A    between atoms: _167  and  _169
REMARK   73  A    between atoms: _169  and  _170
REMARK   74  A    between atoms: _172  and  _174
REMARK   75  A    between atoms: _174  and  _175
REMARK   76  A    between atoms: _174  and  _177
REMARK   77  A    between atoms: _177  and  _178
REMARK   78  A    between atoms: _184  and  _186
REMARK   79  A    between atoms: _186  and  _187
REMARK   80  A    between atoms: _186  and  _189
REMARK   81  A    between atoms: _189  and  _190
REMARK   82  A    between atoms: _193  and  _195
REMARK   83  A    between atoms: _195  and  _196
REMARK   84  A    between atoms: _195  and  _198
REMARK   85  A    between atoms: _201  and  _203
REMARK   86  A    between atoms: _203  and  _204
REMARK   87  A    between atoms: _203  and  _206
REMARK   88  A    between atoms: _206  and  _207
REMARK   89  A    between atoms: _211  and  _212
REMARK   90  A    between atoms: _217  and  _219
REMARK   91  A    between atoms: _219  and  _220
REMARK   92  A    between atoms: _219  and  _222
REMARK   93  A    between atoms: _222  and  _223
REMARK   94  A    between atoms: _227  and  _228
REMARK   95  A    between atoms: _233  and  _235
REMARK   96  A    between atoms: _235  and  _236
REMARK   97  A    between atoms: _235  and  _238
REMARK   98  A    between atoms: _241  and  _243
REMARK   99  A    between atoms: _243  and  _244
REMARK  100  A    between atoms: _243  and  _246
REMARK  101  A    between atoms: _246  and  _247
REMARK  102  A    between atoms: _252  and  _254
REMARK  103  A    between atoms: _254  and  _255
REMARK  104  A    between atoms: _254  and  _257
REMARK  105  A    between atoms: _257  and  _258
REMARK  106  A    between atoms: _261  and  _263
REMARK  107  A    between atoms: _263  and  _264
REMARK  108  A    between atoms: _263  and  _266
REMARK  109  A    between atoms: _266  and  _267
REMARK  110  A    between atoms: _270  and  _272
REMARK  111  A    between atoms: _272  and  _273
REMARK  112  A    between atoms: _275  and  _277
REMARK  113  A    between atoms: _277  and  _278
REMARK  114  A    between atoms: _277  and  _280
REMARK  115  A    between atoms: _280  and  _281
REMARK  116  A    between atoms: _281  and  _282
REMARK  117  A    between atoms: _282  and  _283
REMARK  118  A    between atoms: _292  and  _294
REMARK  119  A    between atoms: _294  and  _295
REMARK  120  A    between atoms: _294  and  _297
REMARK  121  A    between atoms: _297  and  _298
REMARK  122  A    between atoms: _303  and  _305
REMARK  123  A    between atoms: _305  and  _306
REMARK  124  A    between atoms: _305  and  _308
REMARK  125  A    between atoms: _308  and  _309
REMARK  126  A    between atoms: _309  and  _310
REMARK  127  A    between atoms: _310  and  _311
REMARK  128  A    between atoms: _320  and  _322
REMARK  129  A    between atoms: _322  and  _323
REMARK  130  A    between atoms: _322  and  _325
REMARK  131  A    between atoms: _325  and  _326
REMARK  132  A    between atoms: _329  and  _331
REMARK  133  A    between atoms: _331  and  _332
REMARK  134  A    between atoms: _331  and  _334
REMARK  135  A    between atoms: _334  and  _335
REMARK  136  A    between atoms: _338  and  _340
REMARK  137  A    between atoms: _340  and  _341
REMARK  138  A    between atoms: _340  and  _343
REMARK  139  A    between atoms: _343  and  _344
REMARK  140  A    between atoms: _347  and  _349
REMARK  141  A    between atoms: _349  and  _350
REMARK  142  A    between atoms: _349  and  _352
REMARK  143  A    between atoms: _352  and  _353
REMARK  144  A    between atoms: _356  and  _358
REMARK  145  A    between atoms: _358  and  _359
REMARK  146  A    between atoms: _361  and  _363
REMARK  147  A    between atoms: _363  and  _364
REMARK  148  A    between atoms: _367  and  _369
REMARK  149  A    between atoms: _369  and  _370
REMARK  150  A    between atoms: _369  and  _372
REMARK  151  A    between atoms: _372  and  _373
REMARK  152  A    between atoms: _376  and  _378
REMARK  153  A    between atoms: _378  and  _379
REMARK  154  A    between atoms: _378  and  _381
REMARK  155  A    between atoms: _381  and  _382
REMARK  156  A    between atoms: _385  and  _387
REMARK  157  A    between atoms: _387  and  _388
REMARK  158  A    between atoms: _387  and  _390
REMARK  159  A    between atoms: _390  and  _391
REMARK  160  A    between atoms: _394  and  _396
REMARK  161  A    between atoms: _396  and  _397
REMARK  162  A    between atoms: _396  and  _399
REMARK  163  A    between atoms: _402  and  _404
REMARK  164  A    between atoms: _404  and  _405
REMARK  165  A    between atoms: _404  and  _407
REMARK  166  A    between atoms: _407  and  _408
REMARK  167  A    between atoms: _408  and  _409
REMARK  168  A    between atoms: _409  and  _410
REMARK  169  A    between atoms: _410  and  _411
REMARK  170  A    between atoms: _415  and  _417
REMARK  171  A    between atoms: _417  and  _418
REMARK  172  A    between atoms: _417  and  _420
REMARK  173  A    between atoms: _420  and  _421
REMARK  174  A    between atoms: _421  and  _422
REMARK  175  A    between atoms: _424  and  _426
REMARK  176  A    between atoms: _426  and  _427
REMARK  177  A    between atoms: _426  and  _429
REMARK  178  A    between atoms: _429  and  _430
REMARK  179  A    between atoms: _433  and  _435
REMARK  180  A    between atoms: _435  and  _436
REMARK  181  A    between atoms: _435  and  _438
REMARK  182  A    between atoms: _441  and  _443
REMARK  183  A    between atoms: _443  and  _444
REMARK  184  A    between atoms: _446  and  _448
REMARK  185  A    between atoms: _448  and  _449
REMARK  186  A    between atoms: _448  and  _451
REMARK  187  A    between atoms: _451  and  _452
REMARK  188  A    between atoms: _455  and  _457
REMARK  189  A    between atoms: _457  and  _458
REMARK  190  A    between atoms: _460  and  _462
REMARK  191  A    between atoms: _462  and  _463
REMARK  192  A    between atoms: _465  and  _467
REMARK  193  A    between atoms: _467  and  _468
REMARK  194  A    between atoms: _467  and  _470
REMARK  195  A    between atoms: _470  and  _471
REMARK  196  A    between atoms: _474  and  _476
REMARK  197  A    between atoms: _476  and  _477
REMARK  198  A    between atoms: _476  and  _479
REMARK  199  A    between atoms: _479  and  _480
REMARK  200  A    between atoms: _483  and  _485
REMARK  201  A    between atoms: _485  and  _486
REMARK  202  A    between atoms: _485  and  _488
REMARK  203  A    between atoms: _488  and  _489
REMARK  204  A    between atoms: _493  and  _494
REMARK  205  A    between atoms: _499  and  _501
REMARK  206  A    between atoms: _501  and  _502
REMARK  207  A    between atoms: _501  and  _504
REMARK  208  A    between atoms: _507  and  _509
REMARK  209  A    between atoms: _509  and  _510
REMARK  210  A    between atoms: _509  and  _512
REMARK  211  A    between atoms: _512  and  _513
REMARK  212  A    between atoms: _518  and  _520
REMARK  213  A    between atoms: _520  and  _521
REMARK  214  A    between atoms: _520  and  _523
REMARK  215  A    between atoms: _523  and  _524
REMARK  216  A    between atoms: _527  and  _529
REMARK  217  A    between atoms: _529  and  _530
REMARK  218  A    between atoms: _529  and  _532
REMARK  219  A    between atoms: _532  and  _533
REMARK  220  A    between atoms: _536  and  _538
REMARK  221  A    between atoms: _538  and  _539
REMARK  222  A    between atoms: _541  and  _543
REMARK  223  A    between atoms: _543  and  _544
REMARK  224  A    between atoms: _543  and  _546
REMARK  225  A    between atoms: _546  and  _547
REMARK  226  A    between atoms: _547  and  _548
REMARK  227  A    between atoms: _548  and  _549
REMARK  228  A    between atoms: _558  and  _560
REMARK  229  A    between atoms: _560  and  _561
REMARK  230  A    between atoms: _560  and  _563
REMARK  231  A    between atoms: _563  and  _564
REMARK                            x       y       z     vdW  Elec       q    Type
REMARK                         _______ _______ _______ _____ _____    ______ ____
ROOT
ATOM      1  CA  ILE A   1     -10.552  32.131 -18.262  0.00  0.00    +0.133 C 
ENDROOT
BRANCH   1   2
ATOM      2  N   ILE A   1     -11.164  31.476 -17.121  0.00  0.00    -0.239 NA
ATOM      3  H   ILE A   1     -12.100  31.035 -17.224  0.00  0.00    +0.142 HD
ENDBRANCH   1   2
BRANCH   1   4
ATOM      4  C   ILE A   1     -11.627  32.975 -18.952  0.00  0.00    +0.224 C 
ATOM      5  O   ILE A   1     -12.837  32.724 -18.886  0.00  0.00    -0.287 OA
ENDBRANCH   1   4
BRANCH   1   6
ATOM      6  CB  ILE A   1      -9.936  31.167 -19.275  0.00  0.00    +0.023 C 
ATOM      7  CG2 ILE A   1      -8.759  30.381 -18.671  0.00  0.00    +0.002 C 
BRANCH   6   8
ATOM      8  CG1 ILE A   1     -10.916  30.164 -19.921  0.00  0.00    +0.002 C 
ATOM      9  CD1 ILE A   1     -10.397  29.366 -21.093  0.00  0.00    +0.000 C 
ENDBRANCH   6   8
ENDBRANCH   1   6
TORSDOF 4
REMARK  Name = ../refined-set-2016/3cyw/3cyw_pocket.pdb
REMARK  231 active torsions:
REMARK  status: ('A' for Active; 'I' for Inactive)
REMARK    1  A    between atoms: _1  and  _3
REMARK    2  A    between atoms: _3  and  _4
REMARK    3  A    between atoms: _3  and  _6
REMARK    4  A    between atoms: _6  and  _7
REMARK    5  A    between atoms: _7  and  _8
REMARK    6  A    between atoms: _8  and  _9
REMARK    7  A    between atoms: _18  and  _20
REMARK    8  A    between atoms: _20  and  _21
REMARK    9  A    between atoms: _20  and  _23
REMARK   10  A    between atoms: _23  and  _24
REMARK   11  A    between atoms: _27  and  _29
REMARK   12  A    between atoms: _29  and  _30
REMARK   13  A    between atoms: _29  and  _32
REMARK   14  A    between atoms: _32  and  _33
REMARK   15  A    between atoms: _36  and  _38
REMARK   16  A    between atoms: _38  and  _39
REMARK   17  A    between atoms: _38  and  _41
REMARK   18  A    between atoms: _41  and  _42
REMARK   19  A    between atoms: _45  and  _47
REMARK   20  A    between atoms: _47  and  _48
REMARK   21  A    between atoms: _47  and  _50
REMARK   22  A    between atoms: _50  and  _51
REMARK   23  A    between atoms: _54  and  _56
REMARK   24  A    between atoms: _56  and  _57
REMARK   25  A    between atoms: _59  and  _61
REMARK   26  A    between atoms: _61  and  _62
REMARK   27  A    between atoms: _65  and  _67
REMARK   28  A    between atoms: _67  and  _68
REMARK   29  A    between atoms: _67  and  _70
REMARK   30  A    between atoms: _70  and  _71
REMARK   31  A    between atoms: _74  and  _76
REMARK   32  A    between atoms: _76  and  _77
REMARK   33  A    between atoms: _76  and  _79
REMARK   34  A    between atoms: _79  and  _80
REMARK   35  A    between atoms: _83  and  _85
REMARK   36  A    between atoms: _85  and  _86
REMARK   37  A    between atoms: _85  and  _88
REMARK   38  A    between atoms: _88  and  _89
REMARK   39  A    between atoms: _92  and  _94
REMARK   40  A    between atoms: _94  and  _95
REMARK   41  A    between atoms: _94  and  _97
REMARK   42  A    between atoms: _100  and  _102
REMARK   43  A    between atoms: _102  and  _103
REMARK   44  A    between atoms: _102  and  _105
REMARK   45  A    between atoms: _105  and  _106
REMARK   46  A    between atoms: _109  and  _111
REMARK   47  A    between atoms: _111  and  _112
REMARK   48  A    between atoms: _111  and  _114
REMARK   49  A    between atoms: _115  and  _116
REMARK   50  A    between atoms: _116  and  _117
REMARK   51  A    between atoms: _117  and  _118
REMARK   52  A    between atoms: _122  and  _124
REMARK   53  A    between atoms: _124  and  _125
REMARK   54  A    between atoms: _124  and  _127
REMARK   55  A    between atoms: _127  and  _128
REMARK   56  A    between atoms: _128  and  _129
REMARK   57  A    between atoms: _131  and  _133
REMARK   58  A    between atoms: _133  and  _134
REMARK   59  A    between atoms: _133  and  _136
REMARK   60  A    between atoms: _136  and  _137
REMARK   61  A    between atoms: _140  and  _142
REMARK   62  A    between atoms: _142  and  _143
REMARK   63  A    between atoms: _142  and  _145
REMARK   64  A    between atoms: _148  and  _150
REMARK   65  A    between atoms: _150  and  _151
REMARK   66  A    between atoms: _153  and  _155
REMARK   67  A    between atoms: _155  and  _156
REMARK   68  A    between atoms: _155  and  _158
REMARK   69  A    between atoms: _158  and  _159
REMARK   70  A    between atoms: _162  and  _164
REMARK   71  A    between atoms: _164  and  _165
REMARK   72  A    between atoms: _167  and  _169
REMARK   73  A    between atoms: _169  and  _170
REMARK   74  A    between atoms: _172  and  _174
REMARK   75  A    between atoms: _174  and  _175
REMARK   76  A    between atoms: _174  and  _177
REMARK   77  A    between atoms: _177  and  _178
REMARK   78  A    between atoms: _184  and  _186
REMARK   79  A    between atoms: _186  and  _187
REMARK   80  A    between atoms: _186  and  _189
REMARK   81  A    between atoms: _189  and  _190
REMARK   82  A    between atoms: _193  and  _195
REMARK   83  A    between atoms: _195  and  _196
REMARK   84  A    between atoms: _195  and  _198
REMARK   85  A    between atoms: _201  and  _203
REMARK   86  A    between atoms: _203  and  _204
REMARK   87  A    between atoms: _203  and  _206
REMARK   88  A    between atoms: _206  and  _207
REMARK   89  A    between atoms: _211  and  _212
REMARK   90  A    between atoms: _217  and  _219
REMARK   91  A    between atoms: _219  and  _220
REMARK   92  A    between atoms: _219  and  _222
REMARK   93  A    between atoms: _222  and  _223
REMARK   94  A    between atoms: _227  and  _228
REMARK   95  A    between atoms: _233  and  _235
REMARK   96  A    between atoms: _235  and  _236
REMARK   97  A    between atoms: _235  and  _238
REMARK   98  A    between atoms: _241  and  _243
REMARK   99  A    between atoms: _243  and  _244
REMARK  100  A    between atoms: _243  and  _246
REMARK  101  A    between atoms: _246  and  _247
REMARK  102  A    between atoms: _252  and  _254
REMARK  103  A    between atoms: _254  and  _255
REMARK  104  A    between atoms: _254  and  _257
REMARK  105  A    between atoms: _257  and  _258
REMARK  106  A    between atoms: _261  and  _263
REMARK  107  A    between atoms: _263  and  _264
REMARK  108  A    between atoms: _263  and  _266
REMARK  109  A    between atoms: _266  and  _267
REMARK  110  A    between atoms: _270  and  _272
REMARK  111  A    between atoms: _272  and  _273
REMARK  112  A    between atoms: _275  and  _277
REMARK  113  A    between atoms: _277  and  _278
REMARK  114  A    between atoms: _277  and  _280
REMARK  115  A    between atoms: _280  and  _281
REMARK  116  A    between atoms: _281  and  _282
REMARK  117  A    between atoms: _282  and  _283
REMARK  118  A    between atoms: _292  and  _294
REMARK  119  A    between atoms: _294  and  _295
REMARK  120  A    between atoms: _294  and  _297
REMARK  121  A    between atoms: _297  and  _298
REMARK  122  A    between atoms: _303  and  _305
REMARK  123  A    between atoms: _305  and  _306
REMARK  124  A    between atoms: _305  and  _308
REMARK  125  A    between atoms: _308  and  _309
REMARK  126  A    between atoms: _309  and  _310
REMARK  127  A    between atoms: _310  and  _311
REMARK  128  A    between atoms: _320  and  _322
REMARK  129  A    between atoms: _322  and  _323
REMARK  130  A    between atoms: _322  and  _325
REMARK  131  A    between atoms: _325  and  _326
REMARK  132  A    between atoms: _329  and  _331
REMARK  133  A    between atoms: _331  and  _332
REMARK  134  A    between atoms: _331  and  _334
REMARK  135  A    between atoms: _334  and  _335
REMARK  136  A    between atoms: _338  and  _340
REMARK  137  A    between atoms: _340  and  _341
REMARK  138  A    between atoms: _340  and  _343
REMARK  139  A    between atoms: _343  and  _344
REMARK  140  A    between atoms: _347  and  _349
REMARK  141  A    between atoms: _349  and  _350
REMARK  142  A    between atoms: _349  and  _352
REMARK  143  A    between atoms: _352  and  _353
REMARK  144  A    between atoms: _356  and  _358
REMARK  145  A    between atoms: _358  and  _359
REMARK  146  A    between atoms: _361  and  _363
REMARK  147  A    between atoms: _363  and  _364
REMARK  148  A    between atoms: _367  and  _369
REMARK  149  A    between atoms: _369  and  _370
REMARK  150  A    between atoms: _369  and  _372
REMARK  151  A    between atoms: _372  and  _373
REMARK  152  A    between atoms: _376  and  _378
REMARK  153  A    between atoms: _378  and  _379
REMARK  154  A    between atoms: _378  and  _381
REMARK  155  A    between atoms: _381  and  _382
REMARK  156  A    between atoms: _385  and  _387
REMARK  157  A    between atoms: _387  and  _388
REMARK  158  A    between atoms: _387  and  _390
REMARK  159  A    between atoms: _390  and  _391
REMARK  160  A    between atoms: _394  and  _396
REMARK  161  A    between atoms: _396  and  _397
REMARK  162  A    between atoms: _396  and  _399
REMARK  163  A    between atoms: _402  and  _404
REMARK  164  A    between atoms: _404  and  _405
REMARK  165  A    between atoms: _404  and  _407
REMARK  166  A    between atoms: _407  and  _408
REMARK  167  A    between atoms: _408  and  _409
REMARK  168  A    between atoms: _409  and  _410
REMARK  169  A    between atoms: _410  and  _411
REMARK  170  A    between atoms: _415  and  _417
REMARK  171  A    between atoms: _417  and  _418
REMARK  172  A    between atoms: _417  and  _420
REMARK  173  A    between atoms: _420  and  _421
REMARK  174  A    between atoms: _421  and  _422
REMARK  175  A    between atoms: _424  and  _426
REMARK  176  A    between atoms: _426  and  _427
REMARK  177  A    between atoms: _426  and  _429
REMARK  178  A    between atoms: _429  and  _430
REMARK  179  A    between atoms: _433  and  _435
REMARK  180  A    between atoms: _435  and  _436
REMARK  181  A    between atoms: _435  and  _438
REMARK  182  A    between atoms: _441  and  _443
REMARK  183  A    between atoms: _443  and  _444
REMARK  184  A    between atoms: _446  and  _448
REMARK  185  A    between atoms: _448  and  _449
REMARK  186  A    between atoms: _448  and  _451
REMARK  187  A    between atoms: _451  and  _452
REMARK  188  A    between atoms: _455  and  _457
REMARK  189  A    between atoms: _457  and  _458
REMARK  190  A    between atoms: _460  and  _462
REMARK  191  A    between atoms: _462  and  _463
REMARK  192  A    between atoms: _465  and  _467
REMARK  193  A    between atoms: _467  and  _468
REMARK  194  A    between atoms: _467  and  _470
REMARK  195  A    between atoms: _470  and  _471
REMARK  196  A    between atoms: _474  and  _476
REMARK  197  A    between atoms: _476  and  _477
REMARK  198  A    between atoms: _476  and  _479
REMARK  199  A    between atoms: _479  and  _480
REMARK  200  A    between atoms: _483  and  _485
REMARK  201  A    between atoms: _485  and  _486
REMARK  202  A    between atoms: _485  and  _488
REMARK  203  A    between atoms: _488  and  _489
REMARK  204  A    between atoms: _493  and  _494
REMARK  205  A    between atoms: _499  and  _501
REMARK  206  A    between atoms: _501  and  _502
REMARK  207  A    between atoms: _501  and  _504
REMARK  208  A    between atoms: _507  and  _509
REMARK  209  A    between atoms: _509  and  _510
REMARK  210  A    between atoms: _509  and  _512
REMARK  211  A    between atoms: _512  and  _513
REMARK  212  A    between atoms: _518  and  _520
REMARK  213  A    between atoms: _520  and  _521
REMARK  214  A    between atoms: _520  and  _523
REMARK  215  A    between atoms: _523  and  _524
REMARK  216  A    between atoms: _527  and  _529
REMARK  217  A    between atoms: _529  and  _530
REMARK  218  A    between atoms: _529  and  _532
REMARK  219  A    between atoms: _532  and  _533
REMARK  220  A    between atoms: _536  and  _538
REMARK  221  A    between atoms: _538  and  _539
REMARK  222  A    between atoms: _541  and  _543
REMARK  223  A    between atoms: _543  and  _544
REMARK  224  A    between atoms: _543  and  _546
REMARK  225  A    between atoms: _546  and  _547
REMARK  226  A    between atoms: _547  and  _548
REMARK  227  A    between atoms: _548  and  _549
REMARK  228  A    between atoms: _558  and  _560
REMARK  229  A    between atoms: _560  and  _561
REMARK  230  A    between atoms: _560  and  _563
REMARK  231  A    between atoms: _563  and  _564
REMARK                            x       y       z     vdW  Elec       q    Type
REMARK                         _______ _______ _______ _____ _____    ______ ____
ROOT
ATOM      1  CA  LEU A   1     -15.923  29.634 -27.370  0.00  0.00    +0.133 C 
ENDROOT
BRANCH   1   2
ATOM      2  N   LEU A   1     -16.733  28.752 -28.187  0.00  0.00    -0.239 NA
ATOM      3  H   LEU A   1     -16.829  27.764 -27.878  0.00  0.00    +0.142 HD
ENDBRANCH   1   2
BRANCH   1   4
ATOM      4  C   LEU A   1     -14.470  29.446 -27.773  0.00  0.00    +0.224 C 
ATOM      5  O   LEU A   1     -14.018  28.339 -27.951  0.00  0.00    -0.287 OA
ENDBRANCH   1   4
BRANCH   1   6
ATOM      6  CB  LEU A   1     -16.121  29.319 -25.885  0.00  0.00    +0.025 C 
BRANCH   6   7
ATOM      7  CG  LEU A   1     -17.564  29.269 -25.371  0.00  0.00    +0.002 C 
ATOM      8  CD2 LEU A   1     -17.571  28.956 -23.858  0.00  0.00    +0.000 C 
ATOM      9  CD1 LEU A   1     -18.325  30.518 -25.737  0.00  0.00    +0.000 C 
ENDBRANCH   6   7
ENDBRANCH   1   6
TORSDOF 4
REMARK  Name = ../refined-set-2016/3cyw/3cyw_pocket.pdb
REMARK  231 active torsions:
REMARK  status: ('A' for Active; 'I' for Inactive)
REMARK    1  A    between atoms: _1  and  _3
REMARK    2  A    between atoms: _3  and  _4
REMARK    3  A    between atoms: _3  and  _6
REMARK    4  A    between atoms: _6  and  _7
REMARK    5  A    between atoms: _7  and  _8
REMARK    6  A    between atoms: _8  and  _9
REMARK    7  A    between atoms: _18  and  _20
REMARK    8  A    between atoms: _20  and  _21
REMARK    9  A    between atoms: _20  and  _23
REMARK   10  A    between atoms: _23  and  _24
REMARK   11  A    between atoms: _27  and  _29
REMARK   12  A    between atoms: _29  and  _30
REMARK   13  A    between atoms: _29  and  _32
REMARK   14  A    between atoms: _32  and  _33
REMARK   15  A    between atoms: _36  and  _38
REMARK   16  A    between atoms: _38  and  _39
REMARK   17  A    between atoms: _38  and  _41
REMARK   18  A    between atoms: _41  and  _42
REMARK   19  A    between atoms: _45  and  _47
REMARK   20  A    between atoms: _47  and  _48
REMARK   21  A    between atoms: _47  and  _50
REMARK   22  A    between atoms: _50  and  _51
REMARK   23  A    between atoms: _54  and  _56
REMARK   24  A    between atoms: _56  and  _57
REMARK   25  A    between atoms: _59  and  _61
REMARK   26  A    between atoms: _61  and  _62
REMARK   27  A    between atoms: _65  and  _67
REMARK   28  A    between atoms: _67  and  _68
REMARK   29  A    between atoms: _67  and  _70
REMARK   30  A    between atoms: _70  and  _71
REMARK   31  A    between atoms: _74  and  _76
REMARK   32  A    between atoms: _76  and  _77
REMARK   33  A    between atoms: _76  and  _79
REMARK   34  A    between atoms: _79  and  _80
REMARK   35  A    between atoms: _83  and  _85
REMARK   36  A    between atoms: _85  and  _86
REMARK   37  A    between atoms: _85  and  _88
REMARK   38  A    between atoms: _88  and  _89
REMARK   39  A    between atoms: _92  and  _94
REMARK   40  A    between atoms: _94  and  _95
REMARK   41  A    between atoms: _94  and  _97
REMARK   42  A    between atoms: _100  and  _102
REMARK   43  A    between atoms: _102  and  _103
REMARK   44  A    between atoms: _102  and  _105
REMARK   45  A    between atoms: _105  and  _106
REMARK   46  A    between atoms: _109  and  _111
REMARK   47  A    between atoms: _111  and  _112
REMARK   48  A    between atoms: _111  and  _114
REMARK   49  A    between atoms: _115  and  _116
REMARK   50  A    between atoms: _116  and  _117
REMARK   51  A    between atoms: _117  and  _118
REMARK   52  A    between atoms: _122  and  _124
REMARK   53  A    between atoms: _124  and  _125
REMARK   54  A    between atoms: _124  and  _127
REMARK   55  A    between atoms: _127  and  _128
REMARK   56  A    between atoms: _128  and  _129
REMARK   57  A    between atoms: _131  and  _133
REMARK   58  A    between atoms: _133  and  _134
REMARK   59  A    between atoms: _133  and  _136
REMARK   60  A    between atoms: _136  and  _137
REMARK   61  A    between atoms: _140  and  _142
REMARK   62  A    between atoms: _142  and  _143
REMARK   63  A    between atoms: _142  and  _145
REMARK   64  A    between atoms: _148  and  _150
REMARK   65  A    between atoms: _150  and  _151
REMARK   66  A    between atoms: _153  and  _155
REMARK   67  A    between atoms: _155  and  _156
REMARK   68  A    between atoms: _155  and  _158
REMARK   69  A    between atoms: _158  and  _159
REMARK   70  A    between atoms: _162  and  _164
REMARK   71  A    between atoms: _164  and  _165
REMARK   72  A    between atoms: _167  and  _169
REMARK   73  A    between atoms: _169  and  _170
REMARK   74  A    between atoms: _172  and  _174
REMARK   75  A    between atoms: _174  and  _175
REMARK   76  A    between atoms: _174  and  _177
REMARK   77  A    between atoms: _177  and  _178
REMARK   78  A    between atoms: _184  and  _186
REMARK   79  A    between atoms: _186  and  _187
REMARK   80  A    between atoms: _186  and  _189
REMARK   81  A    between atoms: _189  and  _190
REMARK   82  A    between atoms: _193  and  _195
REMARK   83  A    between atoms: _195  and  _196
REMARK   84  A    between atoms: _195  and  _198
REMARK   85  A    between atoms: _201  and  _203
REMARK   86  A    between atoms: _203  and  _204
REMARK   87  A    between atoms: _203  and  _206
REMARK   88  A    between atoms: _206  and  _207
REMARK   89  A    between atoms: _211  and  _212
REMARK   90  A    between atoms: _217  and  _219
REMARK   91  A    between atoms: _219  and  _220
REMARK   92  A    between atoms: _219  and  _222
REMARK   93  A    between atoms: _222  and  _223
REMARK   94  A    between atoms: _227  and  _228
REMARK   95  A    between atoms: _233  and  _235
REMARK   96  A    between atoms: _235  and  _236
REMARK   97  A    between atoms: _235  and  _238
REMARK   98  A    between atoms: _241  and  _243
REMARK   99  A    between atoms: _243  and  _244
REMARK  100  A    between atoms: _243  and  _246
REMARK  101  A    between atoms: _246  and  _247
REMARK  102  A    between atoms: _252  and  _254
REMARK  103  A    between atoms: _254  and  _255
REMARK  104  A    between atoms: _254  and  _257
REMARK  105  A    between atoms: _257  and  _258
REMARK  106  A    between atoms: _261  and  _263
REMARK  107  A    between atoms: _263  and  _264
REMARK  108  A    between atoms: _263  and  _266
REMARK  109  A    between atoms: _266  and  _267
REMARK  110  A    between atoms: _270  and  _272
REMARK  111  A    between atoms: _272  and  _273
REMARK  112  A    between atoms: _275  and  _277
REMARK  113  A    between atoms: _277  and  _278
REMARK  114  A    between atoms: _277  and  _280
REMARK  115  A    between atoms: _280  and  _281
REMARK  116  A    between atoms: _281  and  _282
REMARK  117  A    between atoms: _282  and  _283
REMARK  118  A    between atoms: _292  and  _294
REMARK  119  A    between atoms: _294  and  _295
REMARK  120  A    between atoms: _294  and  _297
REMARK  121  A    between atoms: _297  and  _298
REMARK  122  A    between atoms: _303  and  _305
REMARK  123  A    between atoms: _305  and  _306
REMARK  124  A    between atoms: _305  and  _308
REMARK  125  A    between atoms: _308  and  _309
REMARK  126  A    between atoms: _309  and  _310
REMARK  127  A    between atoms: _310  and  _311
REMARK  128  A    between atoms: _320  and  _322
REMARK  129  A    between atoms: _322  and  _323
REMARK  130  A    between atoms: _322  and  _325
REMARK  131  A    between atoms: _325  and  _326
REMARK  132  A    between atoms: _329  and  _331
REMARK  133  A    between atoms: _331  and  _332
REMARK  134  A    between atoms: _331  and  _334
REMARK  135  A    between atoms: _334  and  _335
REMARK  136  A    between atoms: _338  and  _340
REMARK  137  A    between atoms: _340  and  _341
REMARK  138  A    between atoms: _340  and  _343
REMARK  139  A    between atoms: _343  and  _344
REMARK  140  A    between atoms: _347  and  _349
REMARK  141  A    between atoms: _349  and  _350
REMARK  142  A    between atoms: _349  and  _352
REMARK  143  A    between atoms: _352  and  _353
REMARK  144  A    between atoms: _356  and  _358
REMARK  145  A    between atoms: _358  and  _359
REMARK  146  A    between atoms: _361  and  _363
REMARK  147  A    between atoms: _363  and  _364
REMARK  148  A    between atoms: _367  and  _369
REMARK  149  A    between atoms: _369  and  _370
REMARK  150  A    between atoms: _369  and  _372
REMARK  151  A    between atoms: _372  and  _373
REMARK  152  A    between atoms: _376  and  _378
REMARK  153  A    between atoms: _378  and  _379
REMARK  154  A    between atoms: _378  and  _381
REMARK  155  A    between atoms: _381  and  _382
REMARK  156  A    between atoms: _385  and  _387
REMARK  157  A    between atoms: _387  and  _388
REMARK  158  A    between atoms: _387  and  _390
REMARK  159  A    between atoms: _390  and  _391
REMARK  160  A    between atoms: _394  and  _396
REMARK  161  A    between atoms: _396  and  _397
REMARK  162  A    between atoms: _396  and  _399
REMARK  163  A    between atoms: _402  and  _404
REMARK  164  A    between atoms: _404  and  _405
REMARK  165  A    between atoms: _404  and  _407
REMARK  166  A    between atoms: _407  and  _408
REMARK  167  A    between atoms: _408  and  _409
REMARK  168  A    between atoms: _409  and  _410
REMARK  169  A    between atoms: _410  and  _411
REMARK  170  A    between atoms: _415  and  _417
REMARK  171  A    between atoms: _417  and  _418
REMARK  172  A    between atoms: _417  and  _420
REMARK  173  A    between atoms: _420  and  _421
REMARK  174  A    between atoms: _421  and  _422
REMARK  175  A    between atoms: _424  and  _426
REMARK  176  A    between atoms: _426  and  _427
REMARK  177  A    between atoms: _426  and  _429
REMARK  178  A    between atoms: _429  and  _430
REMARK  179  A    between atoms: _433  and  _435
REMARK  180  A    between atoms: _435  and  _436
REMARK  181  A    between atoms: _435  and  _438
REMARK  182  A    between atoms: _441  and  _443
REMARK  183  A    between atoms: _443  and  _444
REMARK  184  A    between atoms: _446  and  _448
REMARK  185  A    between atoms: _448  and  _449
REMARK  186  A    between atoms: _448  and  _451
REMARK  187  A    between atoms: _451  and  _452
REMARK  188  A    between atoms: _455  and  _457
REMARK  189  A    between atoms: _457  and  _458
REMARK  190  A    between atoms: _460  and  _462
REMARK  191  A    between atoms: _462  and  _463
REMARK  192  A    between atoms: _465  and  _467
REMARK  193  A    between atoms: _467  and  _468
REMARK  194  A    between atoms: _467  and  _470
REMARK  195  A    between atoms: _470  and  _471
REMARK  196  A    between atoms: _474  and  _476
REMARK  197  A    between atoms: _476  and  _477
REMARK  198  A    between atoms: _476  and  _479
REMARK  199  A    between atoms: _479  and  _480
REMARK  200  A    between atoms: _483  and  _485
REMARK  201  A    between atoms: _485  and  _486
REMARK  202  A    between atoms: _485  and  _488
REMARK  203  A    between atoms: _488  and  _489
REMARK  204  A    between atoms: _493  and  _494
REMARK  205  A    between atoms: _499  and  _501
REMARK  206  A    between atoms: _501  and  _502
REMARK  207  A    between atoms: _501  and  _504
REMARK  208  A    between atoms: _507  and  _509
REMARK  209  A    between atoms: _509  and  _510
REMARK  210  A    between atoms: _509  and  _512
REMARK  211  A    between atoms: _512  and  _513
REMARK  212  A    between atoms: _518  and  _520
REMARK  213  A    between atoms: _520  and  _521
REMARK  214  A    between atoms: _520  and  _523
REMARK  215  A    between atoms: _523  and  _524
REMARK  216  A    between atoms: _527  and  _529
REMARK  217  A    between atoms: _529  and  _530
REMARK  218  A    between atoms: _529  and  _532
REMARK  219  A    between atoms: _532  and  _533
REMARK  220  A    between atoms: _536  and  _538
REMARK  221  A    between atoms: _538  and  _539
REMARK  222  A    between atoms: _541  and  _543
REMARK  223  A    between atoms: _543  and  _544
REMARK  224  A    between atoms: _543  and  _546
REMARK  225  A    between atoms: _546  and  _547
REMARK  226  A    between atoms: _547  and  _548
REMARK  227  A    between atoms: _548  and  _549
REMARK  228  A    between atoms: _558  and  _560
REMARK  229  A    between atoms: _560  and  _561
REMARK  230  A    between atoms: _560  and  _563
REMARK  231  A    between atoms: _563  and  _564
REMARK                            x       y       z     vdW  Elec       q    Type
REMARK                         _______ _______ _______ _____ _____    ______ ____
ROOT
ATOM      1  C   ILE A   5     -14.591  20.609 -26.560  0.00  0.00    +0.241 C 
ATOM      2  N   ILE A   6     -15.281  19.497 -26.822  0.00  0.00    -0.297 N 
ATOM      3  H   ILE A   6     -14.821  18.577 -26.667  0.00  0.00    +0.150 HD
ATOM      4  O   ILE A   5     -14.973  21.745 -26.846  0.00  0.00    -0.273 OA
ENDROOT
BRANCH   2   5
ATOM      5  CA  ILE A   6     -16.644  19.516 -27.313  0.00  0.00    +0.149 C 
BRANCH   5   6
ATOM      6  C   ILE A   6     -17.568  19.259 -26.137  0.00  0.00    +0.241 C 
ATOM      7  O   ILE A   6     -17.552  18.177 -25.568  0.00  0.00    -0.273 OA
ATOM      8  N   GLY A   7     -18.329  20.277 -25.758  0.00  0.00    -0.295 N 
ATOM      9  H   GLY A   7     -18.259  21.175 -26.277  0.00  0.00    +0.150 HD
BRANCH   8  10
ATOM     10  CA  GLY A   7     -19.249  20.184 -24.653  0.00  0.00    +0.176 C 
BRANCH  10  11
ATOM     11  C   GLY A   7     -20.675  19.849 -25.051  0.00  0.00    +0.243 C 
ATOM     12  N   ARG A   8     -21.524  19.820 -24.027  0.00  0.00    -0.297 N 
ATOM     13  H   ARG A   8     -21.221  20.152 -23.089  0.00  0.00    +0.150 HD
ATOM     14  O   GLY A   7     -20.995  19.603 -26.220  0.00  0.00    -0.273 OA
BRANCH  12  15
ATOM     15  CA  ARG A   8     -22.883  19.321 -24.223  0.00  0.00    +0.149 C 
BRANCH  15  16
ATOM     16  C   ARG A   8     -23.667  20.105 -25.251  0.00  0.00    +0.241 C 
ATOM     17  N   ASN A   9     -23.395  21.390 -25.429  0.00  0.00    -0.298 N 
ATOM     18  H   ASN A   9     -22.657  21.848 -24.857  0.00  0.00    +0.150 HD
ATOM     19  O   ARG A   8     -24.563  19.556 -25.899  0.00  0.00    -0.273 OA
BRANCH  17  20
ATOM     20  CA  ASN A   9     -24.131  22.165 -26.428  0.00  0.00    +0.146 C 
BRANCH  20  21
ATOM     21  C   ASN A   9     -24.047  21.526 -27.812  0.00  0.00    +0.227 C 
ATOM     22  O   ASN A   9     -25.041  21.569 -28.546  0.00  0.00    -0.286 OA
ENDBRANCH  20  21
BRANCH  20  23
ATOM     23  CB  ASN A   9     -23.683  23.613 -26.460  0.00  0.00    +0.112 C 
BRANCH  23  24
ATOM     24  CG  ASN A   9     -22.396  23.968 -27.136  0.00  0.00    +0.222 C 
ATOM     25  ND2 ASN A   9     -21.372  23.274 -26.713  0.00  0.00    -0.329 N 
ATOM     26 HD21 ASN A   9     -21.497  22.570 -25.957  0.00  0.00    +0.145 HD
ATOM     27 HD22 ASN A   9     -20.432  23.425 -27.132  0.00  0.00    +0.145 HD
ATOM     28  OD1 ASN A   9     -22.311  24.841 -28.054  0.00  0.00    -0.275 OA
ENDBRANCH  23  24
ENDBRANCH  20  23
ENDBRANCH  17  20
ENDBRANCH  15  16
BRANCH  15  29
ATOM     29  CB  ARG A   8     -23.614  19.259 -22.871  0.00  0.00    +0.033 C 
BRANCH  29  30
ATOM     30  CG  ARG A   8     -23.058  18.231 -21.907  0.00  0.00    +0.045 C 
BRANCH  30  31
ATOM     31  CD  ARG A   8     -23.935  18.081 -20.666  0.00  0.00    +0.174 C 
BRANCH  31  32
ATOM     32  NE  ARG A   8     -23.909  19.304 -19.889  0.00  0.00    -0.265 N 
ATOM     33  HE  ARG A   8     -23.068  19.492 -19.307  0.00  0.00    +0.259 HD
ATOM     34  CZ  ARG A   8     -24.889  20.200 -19.871  0.00  0.00    +0.342 C 
ATOM     35  NH2 ARG A   8     -24.723  21.296 -19.150  0.00  0.00    -0.292 N 
ATOM     36 HH21 ARG A   8     -23.842  21.439 -18.616  0.00  0.00    +0.255 HD
ATOM     37 HH22 ARG A   8     -25.473  22.015 -19.117  0.00  0.00    +0.255 HD
ATOM     38  NH1 ARG A   8     -25.995  19.976 -20.563  0.00  0.00    -0.292 N 
ATOM     39 HH11 ARG A   8     -26.766  20.674 -20.552  0.00  0.00    +0.255 HD
ATOM     40 HH12 ARG A   8     -26.093  19.102 -21.117  0.00  0.00    +0.255 HD
ENDBRANCH  31  32
ENDBRANCH  30  31
ENDBRANCH  29  30
ENDBRANCH  15  29
ENDBRANCH  12  15
ENDBRANCH  10  11
ENDBRANCH   8  10
ENDBRANCH   5   6
BRANCH   5  41
ATOM     41  CB  ILE A   6     -16.883  18.475 -28.419  0.00  0.00    +0.027 C 
ATOM     42  CG2 ILE A   6     -18.291  18.623 -28.961  0.00  0.00    +0.002 C 
BRANCH  41  43
ATOM     43  CG1 ILE A   6     -15.800  18.551 -29.497  0.00  0.00    +0.002 C 
ATOM     44  CD1 ILE A   6     -15.726  19.886 -30.240  0.00  0.00    +0.000 C 
ENDBRANCH  41  43
ENDBRANCH   5  41
ENDBRANCH   2   5
BRANCH   1  45
ATOM     45  CA  ILE A   5     -13.247  20.356 -25.888  0.00  0.00    +0.149 C 
BRANCH  45  47
ATOM     46  C   ASN A   4     -11.069  20.608 -26.925  0.00  0.00    +0.241 C 
ATOM     47  N   ILE A   5     -12.215  21.149 -26.532  0.00  0.00    -0.297 N 
ATOM     48  H   ILE A   5     -12.378  22.164 -26.689  0.00  0.00    +0.150 HD
ATOM     49  O   ASN A   4     -10.793  19.387 -26.887  0.00  0.00    -0.273 OA
BRANCH  46  50
ATOM     50  CA  ASN A   4     -10.007  21.557 -27.489  0.00  0.00    +0.158 C 
BRANCH  50  53
ATOM     51  C   VAL A   3      -8.546  21.659 -25.554  0.00  0.00    +0.241 C 
ATOM     52  O   VAL A   3      -9.393  22.254 -24.890  0.00  0.00    -0.273 OA
ATOM     53  N   ASN A   4      -8.744  21.324 -26.830  0.00  0.00    -0.297 N 
ATOM     54  H   ASN A   4      -7.968  20.883 -27.364  0.00  0.00    +0.150 HD
BRANCH  51  55
ATOM     55  CA  VAL A   3      -7.219  21.241 -24.959  0.00  0.00    +0.149 C 
BRANCH  55  57
ATOM     56  C   PRO A   2      -5.657  22.504 -23.548  0.00  0.00    +0.241 C 
ATOM     57  N   VAL A   3      -6.898  22.183 -23.856  0.00  0.00    -0.297 N 
ATOM     58  H   VAL A   3      -7.677  22.603 -23.309  0.00  0.00    +0.150 HD
ATOM     59  O   PRO A   2      -4.710  21.964 -24.109  0.00  0.00    -0.273 OA
BRANCH  56  65
ATOM     60  C   THR A   1      -6.831  25.357 -23.252  0.00  0.00    +0.244 C 
ATOM     61  N   PRO A   2      -6.518  24.508 -22.279  0.00  0.00    -0.272 N 
ATOM     62  CD  PRO A   2      -7.083  24.385 -20.934  0.00  0.00    +0.094 C 
ATOM     63  CG  PRO A   2      -6.451  23.153 -20.366  0.00  0.00    +0.024 C 
ATOM     64  CB  PRO A   2      -5.229  22.890 -21.156  0.00  0.00    +0.031 C 
ATOM     65  CA  PRO A   2      -5.398  23.563 -22.492  0.00  0.00    +0.152 C 
ATOM     66  O   THR A   1      -6.170  25.456 -24.306  0.00  0.00    -0.273 OA
BRANCH  60  67
ATOM     67  CA  THR A   1      -8.033  26.253 -23.069  0.00  0.00    +0.172 C 
BRANCH  67  68
ATOM     68  CB  THR A   1      -9.308  25.646 -23.690  0.00  0.00    +0.135 C 
ATOM     69  CG2 THR A   1      -9.195  25.555 -25.196  0.00  0.00    +0.034 C 
BRANCH  68  70
ATOM     70  OG1 THR A   1      -9.516  24.317 -23.162  0.00  0.00    -0.383 OA
ATOM     71  HG1 THR A   1      -8.737  23.749 -23.386  0.00  0.00    +0.210 HD
ENDBRANCH  68  70
ENDBRANCH  67  68
BRANCH  67  72
ATOM     72  N   THR A   1      -7.777  27.567 -23.657  0.00  0.00    -0.236 NA
ATOM     73  H   THR A   1      -8.196  27.804 -24.579  0.00  0.00    +0.142 HD
ENDBRANCH  67  72
ENDBRANCH  60  67
ENDBRANCH  56  65
ENDBRANCH  55  57
BRANCH  55  74
ATOM     74  CB  VAL A   3      -7.230  19.764 -24.560  0.00  0.00    +0.027 C 
ATOM     75  CG2 VAL A   3      -6.128  19.448 -23.545  0.00  0.00    +0.002 C 
ATOM     76  CG1 VAL A   3      -8.571  19.333 -23.988  0.00  0.00    +0.002 C 
ENDBRANCH  55  74
ENDBRANCH  51  55
ENDBRANCH  50  53
BRANCH  50  77
ATOM     77  CB  ASN A   4      -9.928  21.305 -28.984  0.00  0.00    +0.114 C 
BRANCH  77  78
ATOM     78  CG  ASN A   4      -9.017  22.260 -29.694  0.00  0.00    +0.222 C 
ATOM     79  OD1 ASN A   4      -8.852  23.409 -29.270  0.00  0.00    -0.275 OA
ATOM     80  ND2 ASN A   4      -8.432  21.808 -30.752  0.00  0.00    -0.329 N 
ATOM     81 HD21 ASN A   4      -8.606  20.832 -31.066  0.00  0.00    +0.145 HD
ATOM     82 HD22 ASN A   4      -7.786  22.420 -31.291  0.00  0.00    +0.145 HD
ENDBRANCH  77  78
ENDBRANCH  50  77
ENDBRANCH  46  50
ENDBRANCH  45  47
BRANCH  45  83
ATOM     83  CB  ILE A   5     -13.393  20.578 -24.370  0.00  0.00    +0.027 C 
ATOM     84  CG2 ILE A   5     -12.143  20.101 -23.603  0.00  0.00    +0.002 C 
BRANCH  83  85
ATOM     85  CG1 ILE A   5     -13.764  21.979 -23.933  0.00  0.00    +0.002 C 
ATOM     86  CD1 ILE A   5     -13.945  22.108 -22.453  0.00  0.00    +0.000 C 
ENDBRANCH  83  85
ENDBRANCH  45  83
ENDBRANCH   1  45
TORSDOF 32
REMARK  Name = ../refined-set-2016/3cyw/3cyw_pocket.pdb
REMARK  231 active torsions:
REMARK  status: ('A' for Active; 'I' for Inactive)
REMARK    1  A    between atoms: _1  and  _3
REMARK    2  A    between atoms: _3  and  _4
REMARK    3  A    between atoms: _3  and  _6
REMARK    4  A    between atoms: _6  and  _7
REMARK    5  A    between atoms: _7  and  _8
REMARK    6  A    between atoms: _8  and  _9
REMARK    7  A    between atoms: _18  and  _20
REMARK    8  A    between atoms: _20  and  _21
REMARK    9  A    between atoms: _20  and  _23
REMARK   10  A    between atoms: _23  and  _24
REMARK   11  A    between atoms: _27  and  _29
REMARK   12  A    between atoms: _29  and  _30
REMARK   13  A    between atoms: _29  and  _32
REMARK   14  A    between atoms: _32  and  _33
REMARK   15  A    between atoms: _36  and  _38
REMARK   16  A    between atoms: _38  and  _39
REMARK   17  A    between atoms: _38  and  _41
REMARK   18  A    between atoms: _41  and  _42
REMARK   19  A    between atoms: _45  and  _47
REMARK   20  A    between atoms: _47  and  _48
REMARK   21  A    between atoms: _47  and  _50
REMARK   22  A    between atoms: _50  and  _51
REMARK   23  A    between atoms: _54  and  _56
REMARK   24  A    between atoms: _56  and  _57
REMARK   25  A    between atoms: _59  and  _61
REMARK   26  A    between atoms: _61  and  _62
REMARK   27  A    between atoms: _65  and  _67
REMARK   28  A    between atoms: _67  and  _68
REMARK   29  A    between atoms: _67  and  _70
REMARK   30  A    between atoms: _70  and  _71
REMARK   31  A    between atoms: _74  and  _76
REMARK   32  A    between atoms: _76  and  _77
REMARK   33  A    between atoms: _76  and  _79
REMARK   34  A    between atoms: _79  and  _80
REMARK   35  A    between atoms: _83  and  _85
REMARK   36  A    between atoms: _85  and  _86
REMARK   37  A    between atoms: _85  and  _88
REMARK   38  A    between atoms: _88  and  _89
REMARK   39  A    between atoms: _92  and  _94
REMARK   40  A    between atoms: _94  and  _95
REMARK   41  A    between atoms: _94  and  _97
REMARK   42  A    between atoms: _100  and  _102
REMARK   43  A    between atoms: _102  and  _103
REMARK   44  A    between atoms: _102  and  _105
REMARK   45  A    between atoms: _105  and  _106
REMARK   46  A    between atoms: _109  and  _111
REMARK   47  A    between atoms: _111  and  _112
REMARK   48  A    between atoms: _111  and  _114
REMARK   49  A    between atoms: _115  and  _116
REMARK   50  A    between atoms: _116  and  _117
REMARK   51  A    between atoms: _117  and  _118
REMARK   52  A    between atoms: _122  and  _124
REMARK   53  A    between atoms: _124  and  _125
REMARK   54  A    between atoms: _124  and  _127
REMARK   55  A    between atoms: _127  and  _128
REMARK   56  A    between atoms: _128  and  _129
REMARK   57  A    between atoms: _131  and  _133
REMARK   58  A    between atoms: _133  and  _134
REMARK   59  A    between atoms: _133  and  _136
REMARK   60  A    between atoms: _136  and  _137
REMARK   61  A    between atoms: _140  and  _142
REMARK   62  A    between atoms: _142  and  _143
REMARK   63  A    between atoms: _142  and  _145
REMARK   64  A    between atoms: _148  and  _150
REMARK   65  A    between atoms: _150  and  _151
REMARK   66  A    between atoms: _153  and  _155
REMARK   67  A    between atoms: _155  and  _156
REMARK   68  A    between atoms: _155  and  _158
REMARK   69  A    between atoms: _158  and  _159
REMARK   70  A    between atoms: _162  and  _164
REMARK   71  A    between atoms: _164  and  _165
REMARK   72  A    between atoms: _167  and  _169
REMARK   73  A    between atoms: _169  and  _170
REMARK   74  A    between atoms: _172  and  _174
REMARK   75  A    between atoms: _174  and  _175
REMARK   76  A    between atoms: _174  and  _177
REMARK   77  A    between atoms: _177  and  _178
REMARK   78  A    between atoms: _184  and  _186
REMARK   79  A    between atoms: _186  and  _187
REMARK   80  A    between atoms: _186  and  _189
REMARK   81  A    between atoms: _189  and  _190
REMARK   82  A    between atoms: _193  and  _195
REMARK   83  A    between atoms: _195  and  _196
REMARK   84  A    between atoms: _195  and  _198
REMARK   85  A    between atoms: _201  and  _203
REMARK   86  A    between atoms: _203  and  _204
REMARK   87  A    between atoms: _203  and  _206
REMARK   88  A    between atoms: _206  and  _207
REMARK   89  A    between atoms: _211  and  _212
REMARK   90  A    between atoms: _217  and  _219
REMARK   91  A    between atoms: _219  and  _220
REMARK   92  A    between atoms: _219  and  _222
REMARK   93  A    between atoms: _222  and  _223
REMARK   94  A    between atoms: _227  and  _228
REMARK   95  A    between atoms: _233  and  _235
REMARK   96  A    between atoms: _235  and  _236
REMARK   97  A    between atoms: _235  and  _238
REMARK   98  A    between atoms: _241  and  _243
REMARK   99  A    between atoms: _243  and  _244
REMARK  100  A    between atoms: _243  and  _246
REMARK  101  A    between atoms: _246  and  _247
REMARK  102  A    between atoms: _252  and  _254
REMARK  103  A    between atoms: _254  and  _255
REMARK  104  A    between atoms: _254  and  _257
REMARK  105  A    between atoms: _257  and  _258
REMARK  106  A    between atoms: _261  and  _263
REMARK  107  A    between atoms: _263  and  _264
REMARK  108  A    between atoms: _263  and  _266
REMARK  109  A    between atoms: _266  and  _267
REMARK  110  A    between atoms: _270  and  _272
REMARK  111  A    between atoms: _272  and  _273
REMARK  112  A    between atoms: _275  and  _277
REMARK  113  A    between atoms: _277  and  _278
REMARK  114  A    between atoms: _277  and  _280
REMARK  115  A    between atoms: _280  and  _281
REMARK  116  A    between atoms: _281  and  _282
REMARK  117  A    between atoms: _282  and  _283
REMARK  118  A    between atoms: _292  and  _294
REMARK  119  A    between atoms: _294  and  _295
REMARK  120  A    between atoms: _294  and  _297
REMARK  121  A    between atoms: _297  and  _298
REMARK  122  A    between atoms: _303  and  _305
REMARK  123  A    between atoms: _305  and  _306
REMARK  124  A    between atoms: _305  and  _308
REMARK  125  A    between atoms: _308  and  _309
REMARK  126  A    between atoms: _309  and  _310
REMARK  127  A    between atoms: _310  and  _311
REMARK  128  A    between atoms: _320  and  _322
REMARK  129  A    between atoms: _322  and  _323
REMARK  130  A    between atoms: _322  and  _325
REMARK  131  A    between atoms: _325  and  _326
REMARK  132  A    between atoms: _329  and  _331
REMARK  133  A    between atoms: _331  and  _332
REMARK  134  A    between atoms: _331  and  _334
REMARK  135  A    between atoms: _334  and  _335
REMARK  136  A    between atoms: _338  and  _340
REMARK  137  A    between atoms: _340  and  _341
REMARK  138  A    between atoms: _340  and  _343
REMARK  139  A    between atoms: _343  and  _344
REMARK  140  A    between atoms: _347  and  _349
REMARK  141  A    between atoms: _349  and  _350
REMARK  142  A    between atoms: _349  and  _352
REMARK  143  A    between atoms: _352  and  _353
REMARK  144  A    between atoms: _356  and  _358
REMARK  145  A    between atoms: _358  and  _359
REMARK  146  A    between atoms: _361  and  _363
REMARK  147  A    between atoms: _363  and  _364
REMARK  148  A    between atoms: _367  and  _369
REMARK  149  A    between atoms: _369  and  _370
REMARK  150  A    between atoms: _369  and  _372
REMARK  151  A    between atoms: _372  and  _373
REMARK  152  A    between atoms: _376  and  _378
REMARK  153  A    between atoms: _378  and  _379
REMARK  154  A    between atoms: _378  and  _381
REMARK  155  A    between atoms: _381  and  _382
REMARK  156  A    between atoms: _385  and  _387
REMARK  157  A    between atoms: _387  and  _388
REMARK  158  A    between atoms: _387  and  _390
REMARK  159  A    between atoms: _390  and  _391
REMARK  160  A    between atoms: _394  and  _396
REMARK  161  A    between atoms: _396  and  _397
REMARK  162  A    between atoms: _396  and  _399
REMARK  163  A    between atoms: _402  and  _404
REMARK  164  A    between atoms: _404  and  _405
REMARK  165  A    between atoms: _404  and  _407
REMARK  166  A    between atoms: _407  and  _408
REMARK  167  A    between atoms: _408  and  _409
REMARK  168  A    between atoms: _409  and  _410
REMARK  169  A    between atoms: _410  and  _411
REMARK  170  A    between atoms: _415  and  _417
REMARK  171  A    between atoms: _417  and  _418
REMARK  172  A    between atoms: _417  and  _420
REMARK  173  A    between atoms: _420  and  _421
REMARK  174  A    between atoms: _421  and  _422
REMARK  175  A    between atoms: _424  and  _426
REMARK  176  A    between atoms: _426  and  _427
REMARK  177  A    between atoms: _426  and  _429
REMARK  178  A    between atoms: _429  and  _430
REMARK  179  A    between atoms: _433  and  _435
REMARK  180  A    between atoms: _435  and  _436
REMARK  181  A    between atoms: _435  and  _438
REMARK  182  A    between atoms: _441  and  _443
REMARK  183  A    between atoms: _443  and  _444
REMARK  184  A    between atoms: _446  and  _448
REMARK  185  A    between atoms: _448  and  _449
REMARK  186  A    between atoms: _448  and  _451
REMARK  187  A    between atoms: _451  and  _452
REMARK  188  A    between atoms: _455  and  _457
REMARK  189  A    between atoms: _457  and  _458
REMARK  190  A    between atoms: _460  and  _462
REMARK  191  A    between atoms: _462  and  _463
REMARK  192  A    between atoms: _465  and  _467
REMARK  193  A    between atoms: _467  and  _468
REMARK  194  A    between atoms: _467  and  _470
REMARK  195  A    between atoms: _470  and  _471
REMARK  196  A    between atoms: _474  and  _476
REMARK  197  A    between atoms: _476  and  _477
REMARK  198  A    between atoms: _476  and  _479
REMARK  199  A    between atoms: _479  and  _480
REMARK  200  A    between atoms: _483  and  _485
REMARK  201  A    between atoms: _485  and  _486
REMARK  202  A    between atoms: _485  and  _488
REMARK  203  A    between atoms: _488  and  _489
REMARK  204  A    between atoms: _493  and  _494
REMARK  205  A    between atoms: _499  and  _501
REMARK  206  A    between atoms: _501  and  _502
REMARK  207  A    between atoms: _501  and  _504
REMARK  208  A    between atoms: _507  and  _509
REMARK  209  A    between atoms: _509  and  _510
REMARK  210  A    between atoms: _509  and  _512
REMARK  211  A    between atoms: _512  and  _513
REMARK  212  A    between atoms: _518  and  _520
REMARK  213  A    between atoms: _520  and  _521
REMARK  214  A    between atoms: _520  and  _523
REMARK  215  A    between atoms: _523  and  _524
REMARK  216  A    between atoms: _527  and  _529
REMARK  217  A    between atoms: _529  and  _530
REMARK  218  A    between atoms: _529  and  _532
REMARK  219  A    between atoms: _532  and  _533
REMARK  220  A    between atoms: _536  and  _538
REMARK  221  A    between atoms: _538  and  _539
REMARK  222  A    between atoms: _541  and  _543
REMARK  223  A    between atoms: _543  and  _544
REMARK  224  A    between atoms: _543  and  _546
REMARK  225  A    between atoms: _546  and  _547
REMARK  226  A    between atoms: _547  and  _548
REMARK  227  A    between atoms: _548  and  _549
REMARK  228  A    between atoms: _558  and  _560
REMARK  229  A    between atoms: _560  and  _561
REMARK  230  A    between atoms: _560  and  _563
REMARK  231  A    between atoms: _563  and  _564
REMARK                            x       y       z     vdW  Elec       q    Type
REMARK                         _______ _______ _______ _____ _____    ______ ____
ROOT
ATOM      1  O   HOH     1      -4.246  16.406 -15.880  0.00  0.00    +0.000 OA
ENDROOT
TORSDOF 0
REMARK  Name = ../refined-set-2016/3cyw/3cyw_pocket.pdb
REMARK  231 active torsions:
REMARK  status: ('A' for Active; 'I' for Inactive)
REMARK    1  A    between atoms: _1  and  _3
REMARK    2  A    between atoms: _3  and  _4
REMARK    3  A    between atoms: _3  and  _6
REMARK    4  A    between atoms: _6  and  _7
REMARK    5  A    between atoms: _7  and  _8
REMARK    6  A    between atoms: _8  and  _9
REMARK    7  A    between atoms: _18  and  _20
REMARK    8  A    between atoms: _20  and  _21
REMARK    9  A    between atoms: _20  and  _23
REMARK   10  A    between atoms: _23  and  _24
REMARK   11  A    between atoms: _27  and  _29
REMARK   12  A    between atoms: _29  and  _30
REMARK   13  A    between atoms: _29  and  _32
REMARK   14  A    between atoms: _32  and  _33
REMARK   15  A    between atoms: _36  and  _38
REMARK   16  A    between atoms: _38  and  _39
REMARK   17  A    between atoms: _38  and  _41
REMARK   18  A    between atoms: _41  and  _42
REMARK   19  A    between atoms: _45  and  _47
REMARK   20  A    between atoms: _47  and  _48
REMARK   21  A    between atoms: _47  and  _50
REMARK   22  A    between atoms: _50  and  _51
REMARK   23  A    between atoms: _54  and  _56
REMARK   24  A    between atoms: _56  and  _57
REMARK   25  A    between atoms: _59  and  _61
REMARK   26  A    between atoms: _61  and  _62
REMARK   27  A    between atoms: _65  and  _67
REMARK   28  A    between atoms: _67  and  _68
REMARK   29  A    between atoms: _67  and  _70
REMARK   30  A    between atoms: _70  and  _71
REMARK   31  A    between atoms: _74  and  _76
REMARK   32  A    between atoms: _76  and  _77
REMARK   33  A    between atoms: _76  and  _79
REMARK   34  A    between atoms: _79  and  _80
REMARK   35  A    between atoms: _83  and  _85
REMARK   36  A    between atoms: _85  and  _86
REMARK   37  A    between atoms: _85  and  _88
REMARK   38  A    between atoms: _88  and  _89
REMARK   39  A    between atoms: _92  and  _94
REMARK   40  A    between atoms: _94  and  _95
REMARK   41  A    between atoms: _94  and  _97
REMARK   42  A    between atoms: _100  and  _102
REMARK   43  A    between atoms: _102  and  _103
REMARK   44  A    between atoms: _102  and  _105
REMARK   45  A    between atoms: _105  and  _106
REMARK   46  A    between atoms: _109  and  _111
REMARK   47  A    between atoms: _111  and  _112
REMARK   48  A    between atoms: _111  and  _114
REMARK   49  A    between atoms: _115  and  _116
REMARK   50  A    between atoms: _116  and  _117
REMARK   51  A    between atoms: _117  and  _118
REMARK   52  A    between atoms: _122  and  _124
REMARK   53  A    between atoms: _124  and  _125
REMARK   54  A    between atoms: _124  and  _127
REMARK   55  A    between atoms: _127  and  _128
REMARK   56  A    between atoms: _128  and  _129
REMARK   57  A    between atoms: _131  and  _133
REMARK   58  A    between atoms: _133  and  _134
REMARK   59  A    between atoms: _133  and  _136
REMARK   60  A    between atoms: _136  and  _137
REMARK   61  A    between atoms: _140  and  _142
REMARK   62  A    between atoms: _142  and  _143
REMARK   63  A    between atoms: _142  and  _145
REMARK   64  A    between atoms: _148  and  _150
REMARK   65  A    between atoms: _150  and  _151
REMARK   66  A    between atoms: _153  and  _155
REMARK   67  A    between atoms: _155  and  _156
REMARK   68  A    between atoms: _155  and  _158
REMARK   69  A    between atoms: _158  and  _159
REMARK   70  A    between atoms: _162  and  _164
REMARK   71  A    between atoms: _164  and  _165
REMARK   72  A    between atoms: _167  and  _169
REMARK   73  A    between atoms: _169  and  _170
REMARK   74  A    between atoms: _172  and  _174
REMARK   75  A    between atoms: _174  and  _175
REMARK   76  A    between atoms: _174  and  _177
REMARK   77  A    between atoms: _177  and  _178
REMARK   78  A    between atoms: _184  and  _186
REMARK   79  A    between atoms: _186  and  _187
REMARK   80  A    between atoms: _186  and  _189
REMARK   81  A    between atoms: _189  and  _190
REMARK   82  A    between atoms: _193  and  _195
REMARK   83  A    between atoms: _195  and  _196
REMARK   84  A    between atoms: _195  and  _198
REMARK   85  A    between atoms: _201  and  _203
REMARK   86  A    between atoms: _203  and  _204
REMARK   87  A    between atoms: _203  and  _206
REMARK   88  A    between atoms: _206  and  _207
REMARK   89  A    between atoms: _211  and  _212
REMARK   90  A    between atoms: _217  and  _219
REMARK   91  A    between atoms: _219  and  _220
REMARK   92  A    between atoms: _219  and  _222
REMARK   93  A    between atoms: _222  and  _223
REMARK   94  A    between atoms: _227  and  _228
REMARK   95  A    between atoms: _233  and  _235
REMARK   96  A    between atoms: _235  and  _236
REMARK   97  A    between atoms: _235  and  _238
REMARK   98  A    between atoms: _241  and  _243
REMARK   99  A    between atoms: _243  and  _244
REMARK  100  A    between atoms: _243  and  _246
REMARK  101  A    between atoms: _246  and  _247
REMARK  102  A    between atoms: _252  and  _254
REMARK  103  A    between atoms: _254  and  _255
REMARK  104  A    between atoms: _254  and  _257
REMARK  105  A    between atoms: _257  and  _258
REMARK  106  A    between atoms: _261  and  _263
REMARK  107  A    between atoms: _263  and  _264
REMARK  108  A    between atoms: _263  and  _266
REMARK  109  A    between atoms: _266  and  _267
REMARK  110  A    between atoms: _270  and  _272
REMARK  111  A    between atoms: _272  and  _273
REMARK  112  A    between atoms: _275  and  _277
REMARK  113  A    between atoms: _277  and  _278
REMARK  114  A    between atoms: _277  and  _280
REMARK  115  A    between atoms: _280  and  _281
REMARK  116  A    between atoms: _281  and  _282
REMARK  117  A    between atoms: _282  and  _283
REMARK  118  A    between atoms: _292  and  _294
REMARK  119  A    between atoms: _294  and  _295
REMARK  120  A    between atoms: _294  and  _297
REMARK  121  A    between atoms: _297  and  _298
REMARK  122  A    between atoms: _303  and  _305
REMARK  123  A    between atoms: _305  and  _306
REMARK  124  A    between atoms: _305  and  _308
REMARK  125  A    between atoms: _308  and  _309
REMARK  126  A    between atoms: _309  and  _310
REMARK  127  A    between atoms: _310  and  _311
REMARK  128  A    between atoms: _320  and  _322
REMARK  129  A    between atoms: _322  and  _323
REMARK  130  A    between atoms: _322  and  _325
REMARK  131  A    between atoms: _325  and  _326
REMARK  132  A    between atoms: _329  and  _331
REMARK  133  A    between atoms: _331  and  _332
REMARK  134  A    between atoms: _331  and  _334
REMARK  135  A    between atoms: _334  and  _335
REMARK  136  A    between atoms: _338  and  _340
REMARK  137  A    between atoms: _340  and  _341
REMARK  138  A    between atoms: _340  and  _343
REMARK  139  A    between atoms: _343  and  _344
REMARK  140  A    between atoms: _347  and  _349
REMARK  141  A    between atoms: _349  and  _350
REMARK  142  A    between atoms: _349  and  _352
REMARK  143  A    between atoms: _352  and  _353
REMARK  144  A    between atoms: _356  and  _358
REMARK  145  A    between atoms: _358  and  _359
REMARK  146  A    between atoms: _361  and  _363
REMARK  147  A    between atoms: _363  and  _364
REMARK  148  A    between atoms: _367  and  _369
REMARK  149  A    between atoms: _369  and  _370
REMARK  150  A    between atoms: _369  and  _372
REMARK  151  A    between atoms: _372  and  _373
REMARK  152  A    between atoms: _376  and  _378
REMARK  153  A    between atoms: _378  and  _379
REMARK  154  A    between atoms: _378  and  _381
REMARK  155  A    between atoms: _381  and  _382
REMARK  156  A    between atoms: _385  and  _387
REMARK  157  A    between atoms: _387  and  _388
REMARK  158  A    between atoms: _387  and  _390
REMARK  159  A    between atoms: _390  and  _391
REMARK  160  A    between atoms: _394  and  _396
REMARK  161  A    between atoms: _396  and  _397
REMARK  162  A    between atoms: _396  and  _399
REMARK  163  A    between atoms: _402  and  _404
REMARK  164  A    between atoms: _404  and  _405
REMARK  165  A    between atoms: _404  and  _407
REMARK  166  A    between atoms: _407  and  _408
REMARK  167  A    between atoms: _408  and  _409
REMARK  168  A    between atoms: _409  and  _410
REMARK  169  A    between atoms: _410  and  _411
REMARK  170  A    between atoms: _415  and  _417
REMARK  171  A    between atoms: _417  and  _418
REMARK  172  A    between atoms: _417  and  _420
REMARK  173  A    between atoms: _420  and  _421
REMARK  174  A    between atoms: _421  and  _422
REMARK  175  A    between atoms: _424  and  _426
REMARK  176  A    between atoms: _426  and  _427
REMARK  177  A    between atoms: _426  and  _429
REMARK  178  A    between atoms: _429  and  _430
REMARK  179  A    between atoms: _433  and  _435
REMARK  180  A    between atoms: _435  and  _436
REMARK  181  A    between atoms: _435  and  _438
REMARK  182  A    between atoms: _441  and  _443
REMARK  183  A    between atoms: _443  and  _444
REMARK  184  A    between atoms: _446  and  _448
REMARK  185  A    between atoms: _448  and  _449
REMARK  186  A    between atoms: _448  and  _451
REMARK  187  A    between atoms: _451  and  _452
REMARK  188  A    between atoms: _455  and  _457
REMARK  189  A    between atoms: _457  and  _458
REMARK  190  A    between atoms: _460  and  _462
REMARK  191  A    between atoms: _462  and  _463
REMARK  192  A    between atoms: _465  and  _467
REMARK  193  A    between atoms: _467  and  _468
REMARK  194  A    between atoms: _467  and  _470
REMARK  195  A    between atoms: _470  and  _471
REMARK  196  A    between atoms: _474  and  _476
REMARK  197  A    between atoms: _476  and  _477
REMARK  198  A    between atoms: _476  and  _479
REMARK  199  A    between atoms: _479  and  _480
REMARK  200  A    between atoms: _483  and  _485
REMARK  201  A    between atoms: _485  and  _486
REMARK  202  A    between atoms: _485  and  _488
REMARK  203  A    between atoms: _488  and  _489
REMARK  204  A    between atoms: _493  and  _494
REMARK  205  A    between atoms: _499  and  _501
REMARK  206  A    between atoms: _501  and  _502
REMARK  207  A    between atoms: _501  and  _504
REMARK  208  A    between atoms: _507  and  _509
REMARK  209  A    between atoms: _509  and  _510
REMARK  210  A    between atoms: _509  and  _512
REMARK  211  A    between atoms: _512  and  _513
REMARK  212  A    between atoms: _518  and  _520
REMARK  213  A    between atoms: _520  and  _521
REMARK  214  A    between atoms: _520  and  _523
REMARK  215  A    between atoms: _523  and  _524
REMARK  216  A    between atoms: _527  and  _529
REMARK  217  A    between atoms: _529  and  _530
REMARK  218  A    between atoms: _529  and  _532
REMARK  219  A    between atoms: _532  and  _533
REMARK  220  A    between atoms: _536  and  _538
REMARK  221  A    between atoms: _538  and  _539
REMARK  222  A    between atoms: _541  and  _543
REMARK  223  A    between atoms: _543  and  _544
REMARK  224  A    between atoms: _543  and  _546
REMARK  225  A    between atoms: _546  and  _547
REMARK  226  A    between atoms: _547  and  _548
REMARK  227  A    between atoms: _548  and  _549
REMARK  228  A    between atoms: _558  and  _560
REMARK  229  A    between atoms: _560  and  _561
REMARK  230  A    between atoms: _560  and  _563
REMARK  231  A    between atoms: _563  and  _564
REMARK                            x       y       z     vdW  Elec       q    Type
REMARK                         _______ _______ _______ _____ _____    ______ ____
ROOT
ATOM      1  O   HOH     1     -10.665  12.170 -21.211  0.00  0.00    +0.000 OA
ENDROOT
TORSDOF 0
REMARK  Name = ../refined-set-2016/3cyw/3cyw_pocket.pdb
REMARK  231 active torsions:
REMARK  status: ('A' for Active; 'I' for Inactive)
REMARK    1  A    between atoms: _1  and  _3
REMARK    2  A    between atoms: _3  and  _4
REMARK    3  A    between atoms: _3  and  _6
REMARK    4  A    between atoms: _6  and  _7
REMARK    5  A    between atoms: _7  and  _8
REMARK    6  A    between atoms: _8  and  _9
REMARK    7  A    between atoms: _18  and  _20
REMARK    8  A    between atoms: _20  and  _21
REMARK    9  A    between atoms: _20  and  _23
REMARK   10  A    between atoms: _23  and  _24
REMARK   11  A    between atoms: _27  and  _29
REMARK   12  A    between atoms: _29  and  _30
REMARK   13  A    between atoms: _29  and  _32
REMARK   14  A    between atoms: _32  and  _33
REMARK   15  A    between atoms: _36  and  _38
REMARK   16  A    between atoms: _38  and  _39
REMARK   17  A    between atoms: _38  and  _41
REMARK   18  A    between atoms: _41  and  _42
REMARK   19  A    between atoms: _45  and  _47
REMARK   20  A    between atoms: _47  and  _48
REMARK   21  A    between atoms: _47  and  _50
REMARK   22  A    between atoms: _50  and  _51
REMARK   23  A    between atoms: _54  and  _56
REMARK   24  A    between atoms: _56  and  _57
REMARK   25  A    between atoms: _59  and  _61
REMARK   26  A    between atoms: _61  and  _62
REMARK   27  A    between atoms: _65  and  _67
REMARK   28  A    between atoms: _67  and  _68
REMARK   29  A    between atoms: _67  and  _70
REMARK   30  A    between atoms: _70  and  _71
REMARK   31  A    between atoms: _74  and  _76
REMARK   32  A    between atoms: _76  and  _77
REMARK   33  A    between atoms: _76  and  _79
REMARK   34  A    between atoms: _79  and  _80
REMARK   35  A    between atoms: _83  and  _85
REMARK   36  A    between atoms: _85  and  _86
REMARK   37  A    between atoms: _85  and  _88
REMARK   38  A    between atoms: _88  and  _89
REMARK   39  A    between atoms: _92  and  _94
REMARK   40  A    between atoms: _94  and  _95
REMARK   41  A    between atoms: _94  and  _97
REMARK   42  A    between atoms: _100  and  _102
REMARK   43  A    between atoms: _102  and  _103
REMARK   44  A    between atoms: _102  and  _105
REMARK   45  A    between atoms: _105  and  _106
REMARK   46  A    between atoms: _109  and  _111
REMARK   47  A    between atoms: _111  and  _112
REMARK   48  A    between atoms: _111  and  _114
REMARK   49  A    between atoms: _115  and  _116
REMARK   50  A    between atoms: _116  and  _117
REMARK   51  A    between atoms: _117  and  _118
REMARK   52  A    between atoms: _122  and  _124
REMARK   53  A    between atoms: _124  and  _125
REMARK   54  A    between atoms: _124  and  _127
REMARK   55  A    between atoms: _127  and  _128
REMARK   56  A    between atoms: _128  and  _129
REMARK   57  A    between atoms: _131  and  _133
REMARK   58  A    between atoms: _133  and  _134
REMARK   59  A    between atoms: _133  and  _136
REMARK   60  A    between atoms: _136  and  _137
REMARK   61  A    between atoms: _140  and  _142
REMARK   62  A    between atoms: _142  and  _143
REMARK   63  A    between atoms: _142  and  _145
REMARK   64  A    between atoms: _148  and  _150
REMARK   65  A    between atoms: _150  and  _151
REMARK   66  A    between atoms: _153  and  _155
REMARK   67  A    between atoms: _155  and  _156
REMARK   68  A    between atoms: _155  and  _158
REMARK   69  A    between atoms: _158  and  _159
REMARK   70  A    between atoms: _162  and  _164
REMARK   71  A    between atoms: _164  and  _165
REMARK   72  A    between atoms: _167  and  _169
REMARK   73  A    between atoms: _169  and  _170
REMARK   74  A    between atoms: _172  and  _174
REMARK   75  A    between atoms: _174  and  _175
REMARK   76  A    between atoms: _174  and  _177
REMARK   77  A    between atoms: _177  and  _178
REMARK   78  A    between atoms: _184  and  _186
REMARK   79  A    between atoms: _186  and  _187
REMARK   80  A    between atoms: _186  and  _189
REMARK   81  A    between atoms: _189  and  _190
REMARK   82  A    between atoms: _193  and  _195
REMARK   83  A    between atoms: _195  and  _196
REMARK   84  A    between atoms: _195  and  _198
REMARK   85  A    between atoms: _201  and  _203
REMARK   86  A    between atoms: _203  and  _204
REMARK   87  A    between atoms: _203  and  _206
REMARK   88  A    between atoms: _206  and  _207
REMARK   89  A    between atoms: _211  and  _212
REMARK   90  A    between atoms: _217  and  _219
REMARK   91  A    between atoms: _219  and  _220
REMARK   92  A    between atoms: _219  and  _222
REMARK   93  A    between atoms: _222  and  _223
REMARK   94  A    between atoms: _227  and  _228
REMARK   95  A    between atoms: _233  and  _235
REMARK   96  A    between atoms: _235  and  _236
REMARK   97  A    between atoms: _235  and  _238
REMARK   98  A    between atoms: _241  and  _243
REMARK   99  A    between atoms: _243  and  _244
REMARK  100  A    between atoms: _243  and  _246
REMARK  101  A    between atoms: _246  and  _247
REMARK  102  A    between atoms: _252  and  _254
REMARK  103  A    between atoms: _254  and  _255
REMARK  104  A    between atoms: _254  and  _257
REMARK  105  A    between atoms: _257  and  _258
REMARK  106  A    between atoms: _261  and  _263
REMARK  107  A    between atoms: _263  and  _264
REMARK  108  A    between atoms: _263  and  _266
REMARK  109  A    between atoms: _266  and  _267
REMARK  110  A    between atoms: _270  and  _272
REMARK  111  A    between atoms: _272  and  _273
REMARK  112  A    between atoms: _275  and  _277
REMARK  113  A    between atoms: _277  and  _278
REMARK  114  A    between atoms: _277  and  _280
REMARK  115  A    between atoms: _280  and  _281
REMARK  116  A    between atoms: _281  and  _282
REMARK  117  A    between atoms: _282  and  _283
REMARK  118  A    between atoms: _292  and  _294
REMARK  119  A    between atoms: _294  and  _295
REMARK  120  A    between atoms: _294  and  _297
REMARK  121  A    between atoms: _297  and  _298
REMARK  122  A    between atoms: _303  and  _305
REMARK  123  A    between atoms: _305  and  _306
REMARK  124  A    between atoms: _305  and  _308
REMARK  125  A    between atoms: _308  and  _309
REMARK  126  A    between atoms: _309  and  _310
REMARK  127  A    between atoms: _310  and  _311
REMARK  128  A    between atoms: _320  and  _322
REMARK  129  A    between atoms: _322  and  _323
REMARK  130  A    between atoms: _322  and  _325
REMARK  131  A    between atoms: _325  and  _326
REMARK  132  A    between atoms: _329  and  _331
REMARK  133  A    between atoms: _331  and  _332
REMARK  134  A    between atoms: _331  and  _334
REMARK  135  A    between atoms: _334  and  _335
REMARK  136  A    between atoms: _338  and  _340
REMARK  137  A    between atoms: _340  and  _341
REMARK  138  A    between atoms: _340  and  _343
REMARK  139  A    between atoms: _343  and  _344
REMARK  140  A    between atoms: _347  and  _349
REMARK  141  A    between atoms: _349  and  _350
REMARK  142  A    between atoms: _349  and  _352
REMARK  143  A    between atoms: _352  and  _353
REMARK  144  A    between atoms: _356  and  _358
REMARK  145  A    between atoms: _358  and  _359
REMARK  146  A    between atoms: _361  and  _363
REMARK  147  A    between atoms: _363  and  _364
REMARK  148  A    between atoms: _367  and  _369
REMARK  149  A    between atoms: _369  and  _370
REMARK  150  A    between atoms: _369  and  _372
REMARK  151  A    between atoms: _372  and  _373
REMARK  152  A    between atoms: _376  and  _378
REMARK  153  A    between atoms: _378  and  _379
REMARK  154  A    between atoms: _378  and  _381
REMARK  155  A    between atoms: _381  and  _382
REMARK  156  A    between atoms: _385  and  _387
REMARK  157  A    between atoms: _387  and  _388
REMARK  158  A    between atoms: _387  and  _390
REMARK  159  A    between atoms: _390  and  _391
REMARK  160  A    between atoms: _394  and  _396
REMARK  161  A    between atoms: _396  and  _397
REMARK  162  A    between atoms: _396  and  _399
REMARK  163  A    between atoms: _402  and  _404
REMARK  164  A    between atoms: _404  and  _405
REMARK  165  A    between atoms: _404  and  _407
REMARK  166  A    between atoms: _407  and  _408
REMARK  167  A    between atoms: _408  and  _409
REMARK  168  A    between atoms: _409  and  _410
REMARK  169  A    between atoms: _410  and  _411
REMARK  170  A    between atoms: _415  and  _417
REMARK  171  A    between atoms: _417  and  _418
REMARK  172  A    between atoms: _417  and  _420
REMARK  173  A    between atoms: _420  and  _421
REMARK  174  A    between atoms: _421  and  _422
REMARK  175  A    between atoms: _424  and  _426
REMARK  176  A    between atoms: _426  and  _427
REMARK  177  A    between atoms: _426  and  _429
REMARK  178  A    between atoms: _429  and  _430
REMARK  179  A    between atoms: _433  and  _435
REMARK  180  A    between atoms: _435  and  _436
REMARK  181  A    between atoms: _435  and  _438
REMARK  182  A    between atoms: _441  and  _443
REMARK  183  A    between atoms: _443  and  _444
REMARK  184  A    between atoms: _446  and  _448
REMARK  185  A    between atoms: _448  and  _449
REMARK  186  A    between atoms: _448  and  _451
REMARK  187  A    between atoms: _451  and  _452
REMARK  188  A    between atoms: _455  and  _457
REMARK  189  A    between atoms: _457  and  _458
REMARK  190  A    between atoms: _460  and  _462
REMARK  191  A    between atoms: _462  and  _463
REMARK  192  A    between atoms: _465  and  _467
REMARK  193  A    between atoms: _467  and  _468
REMARK  194  A    between atoms: _467  and  _470
REMARK  195  A    between atoms: _470  and  _471
REMARK  196  A    between atoms: _474  and  _476
REMARK  197  A    between atoms: _476  and  _477
REMARK  198  A    between atoms: _476  and  _479
REMARK  199  A    between atoms: _479  and  _480
REMARK  200  A    between atoms: _483  and  _485
REMARK  201  A    between atoms: _485  and  _486
REMARK  202  A    between atoms: _485  and  _488
REMARK  203  A    between atoms: _488  and  _489
REMARK  204  A    between atoms: _493  and  _494
REMARK  205  A    between atoms: _499  and  _501
REMARK  206  A    between atoms: _501  and  _502
REMARK  207  A    between atoms: _501  and  _504
REMARK  208  A    between atoms: _507  and  _509
REMARK  209  A    between atoms: _509  and  _510
REMARK  210  A    between atoms: _509  and  _512
REMARK  211  A    between atoms: _512  and  _513
REMARK  212  A    between atoms: _518  and  _520
REMARK  213  A    between atoms: _520  and  _521
REMARK  214  A    between atoms: _520  and  _523
REMARK  215  A    between atoms: _523  and  _524
REMARK  216  A    between atoms: _527  and  _529
REMARK  217  A    between atoms: _529  and  _530
REMARK  218  A    between atoms: _529  and  _532
REMARK  219  A    between atoms: _532  and  _533
REMARK  220  A    between atoms: _536  and  _538
REMARK  221  A    between atoms: _538  and  _539
REMARK  222  A    between atoms: _541  and  _543
REMARK  223  A    between atoms: _543  and  _544
REMARK  224  A    between atoms: _543  and  _546
REMARK  225  A    between atoms: _546  and  _547
REMARK  226  A    between atoms: _547  and  _548
REMARK  227  A    between atoms: _548  and  _549
REMARK  228  A    between atoms: _558  and  _560
REMARK  229  A    between atoms: _560  and  _561
REMARK  230  A    between atoms: _560  and  _563
REMARK  231  A    between atoms: _563  and  _564
REMARK                            x       y       z     vdW  Elec       q    Type
REMARK                         _______ _______ _______ _____ _____    ______ ____
ROOT
ATOM      1  O   HOH     1     -11.625  22.324 -15.955  0.00  0.00    +0.000 OA
ENDROOT
TORSDOF 0
REMARK  Name = ../refined-set-2016/3cyw/3cyw_pocket.pdb
REMARK  231 active torsions:
REMARK  status: ('A' for Active; 'I' for Inactive)
REMARK    1  A    between atoms: _1  and  _3
REMARK    2  A    between atoms: _3  and  _4
REMARK    3  A    between atoms: _3  and  _6
REMARK    4  A    between atoms: _6  and  _7
REMARK    5  A    between atoms: _7  and  _8
REMARK    6  A    between atoms: _8  and  _9
REMARK    7  A    between atoms: _18  and  _20
REMARK    8  A    between atoms: _20  and  _21
REMARK    9  A    between atoms: _20  and  _23
REMARK   10  A    between atoms: _23  and  _24
REMARK   11  A    between atoms: _27  and  _29
REMARK   12  A    between atoms: _29  and  _30
REMARK   13  A    between atoms: _29  and  _32
REMARK   14  A    between atoms: _32  and  _33
REMARK   15  A    between atoms: _36  and  _38
REMARK   16  A    between atoms: _38  and  _39
REMARK   17  A    between atoms: _38  and  _41
REMARK   18  A    between atoms: _41  and  _42
REMARK   19  A    between atoms: _45  and  _47
REMARK   20  A    between atoms: _47  and  _48
REMARK   21  A    between atoms: _47  and  _50
REMARK   22  A    between atoms: _50  and  _51
REMARK   23  A    between atoms: _54  and  _56
REMARK   24  A    between atoms: _56  and  _57
REMARK   25  A    between atoms: _59  and  _61
REMARK   26  A    between atoms: _61  and  _62
REMARK   27  A    between atoms: _65  and  _67
REMARK   28  A    between atoms: _67  and  _68
REMARK   29  A    between atoms: _67  and  _70
REMARK   30  A    between atoms: _70  and  _71
REMARK   31  A    between atoms: _74  and  _76
REMARK   32  A    between atoms: _76  and  _77
REMARK   33  A    between atoms: _76  and  _79
REMARK   34  A    between atoms: _79  and  _80
REMARK   35  A    between atoms: _83  and  _85
REMARK   36  A    between atoms: _85  and  _86
REMARK   37  A    between atoms: _85  and  _88
REMARK   38  A    between atoms: _88  and  _89
REMARK   39  A    between atoms: _92  and  _94
REMARK   40  A    between atoms: _94  and  _95
REMARK   41  A    between atoms: _94  and  _97
REMARK   42  A    between atoms: _100  and  _102
REMARK   43  A    between atoms: _102  and  _103
REMARK   44  A    between atoms: _102  and  _105
REMARK   45  A    between atoms: _105  and  _106
REMARK   46  A    between atoms: _109  and  _111
REMARK   47  A    between atoms: _111  and  _112
REMARK   48  A    between atoms: _111  and  _114
REMARK   49  A    between atoms: _115  and  _116
REMARK   50  A    between atoms: _116  and  _117
REMARK   51  A    between atoms: _117  and  _118
REMARK   52  A    between atoms: _122  and  _124
REMARK   53  A    between atoms: _124  and  _125
REMARK   54  A    between atoms: _124  and  _127
REMARK   55  A    between atoms: _127  and  _128
REMARK   56  A    between atoms: _128  and  _129
REMARK   57  A    between atoms: _131  and  _133
REMARK   58  A    between atoms: _133  and  _134
REMARK   59  A    between atoms: _133  and  _136
REMARK   60  A    between atoms: _136  and  _137
REMARK   61  A    between atoms: _140  and  _142
REMARK   62  A    between atoms: _142  and  _143
REMARK   63  A    between atoms: _142  and  _145
REMARK   64  A    between atoms: _148  and  _150
REMARK   65  A    between atoms: _150  and  _151
REMARK   66  A    between atoms: _153  and  _155
REMARK   67  A    between atoms: _155  and  _156
REMARK   68  A    between atoms: _155  and  _158
REMARK   69  A    between atoms: _158  and  _159
REMARK   70  A    between atoms: _162  and  _164
REMARK   71  A    between atoms: _164  and  _165
REMARK   72  A    between atoms: _167  and  _169
REMARK   73  A    between atoms: _169  and  _170
REMARK   74  A    between atoms: _172  and  _174
REMARK   75  A    between atoms: _174  and  _175
REMARK   76  A    between atoms: _174  and  _177
REMARK   77  A    between atoms: _177  and  _178
REMARK   78  A    between atoms: _184  and  _186
REMARK   79  A    between atoms: _186  and  _187
REMARK   80  A    between atoms: _186  and  _189
REMARK   81  A    between atoms: _189  and  _190
REMARK   82  A    between atoms: _193  and  _195
REMARK   83  A    between atoms: _195  and  _196
REMARK   84  A    between atoms: _195  and  _198
REMARK   85  A    between atoms: _201  and  _203
REMARK   86  A    between atoms: _203  and  _204
REMARK   87  A    between atoms: _203  and  _206
REMARK   88  A    between atoms: _206  and  _207
REMARK   89  A    between atoms: _211  and  _212
REMARK   90  A    between atoms: _217  and  _219
REMARK   91  A    between atoms: _219  and  _220
REMARK   92  A    between atoms: _219  and  _222
REMARK   93  A    between atoms: _222  and  _223
REMARK   94  A    between atoms: _227  and  _228
REMARK   95  A    between atoms: _233  and  _235
REMARK   96  A    between atoms: _235  and  _236
REMARK   97  A    between atoms: _235  and  _238
REMARK   98  A    between atoms: _241  and  _243
REMARK   99  A    between atoms: _243  and  _244
REMARK  100  A    between atoms: _243  and  _246
REMARK  101  A    between atoms: _246  and  _247
REMARK  102  A    between atoms: _252  and  _254
REMARK  103  A    between atoms: _254  and  _255
REMARK  104  A    between atoms: _254  and  _257
REMARK  105  A    between atoms: _257  and  _258
REMARK  106  A    between atoms: _261  and  _263
REMARK  107  A    between atoms: _263  and  _264
REMARK  108  A    between atoms: _263  and  _266
REMARK  109  A    between atoms: _266  and  _267
REMARK  110  A    between atoms: _270  and  _272
REMARK  111  A    between atoms: _272  and  _273
REMARK  112  A    between atoms: _275  and  _277
REMARK  113  A    between atoms: _277  and  _278
REMARK  114  A    between atoms: _277  and  _280
REMARK  115  A    between atoms: _280  and  _281
REMARK  116  A    between atoms: _281  and  _282
REMARK  117  A    between atoms: _282  and  _283
REMARK  118  A    between atoms: _292  and  _294
REMARK  119  A    between atoms: _294  and  _295
REMARK  120  A    between atoms: _294  and  _297
REMARK  121  A    between atoms: _297  and  _298
REMARK  122  A    between atoms: _303  and  _305
REMARK  123  A    between atoms: _305  and  _306
REMARK  124  A    between atoms: _305  and  _308
REMARK  125  A    between atoms: _308  and  _309
REMARK  126  A    between atoms: _309  and  _310
REMARK  127  A    between atoms: _310  and  _311
REMARK  128  A    between atoms: _320  and  _322
REMARK  129  A    between atoms: _322  and  _323
REMARK  130  A    between atoms: _322  and  _325
REMARK  131  A    between atoms: _325  and  _326
REMARK  132  A    between atoms: _329  and  _331
REMARK  133  A    between atoms: _331  and  _332
REMARK  134  A    between atoms: _331  and  _334
REMARK  135  A    between atoms: _334  and  _335
REMARK  136  A    between atoms: _338  and  _340
REMARK  137  A    between atoms: _340  and  _341
REMARK  138  A    between atoms: _340  and  _343
REMARK  139  A    between atoms: _343  and  _344
REMARK  140  A    between atoms: _347  and  _349
REMARK  141  A    between atoms: _349  and  _350
REMARK  142  A    between atoms: _349  and  _352
REMARK  143  A    between atoms: _352  and  _353
REMARK  144  A    between atoms: _356  and  _358
REMARK  145  A    between atoms: _358  and  _359
REMARK  146  A    between atoms: _361  and  _363
REMARK  147  A    between atoms: _363  and  _364
REMARK  148  A    between atoms: _367  and  _369
REMARK  149  A    between atoms: _369  and  _370
REMARK  150  A    between atoms: _369  and  _372
REMARK  151  A    between atoms: _372  and  _373
REMARK  152  A    between atoms: _376  and  _378
REMARK  153  A    between atoms: _378  and  _379
REMARK  154  A    between atoms: _378  and  _381
REMARK  155  A    between atoms: _381  and  _382
REMARK  156  A    between atoms: _385  and  _387
REMARK  157  A    between atoms: _387  and  _388
REMARK  158  A    between atoms: _387  and  _390
REMARK  159  A    between atoms: _390  and  _391
REMARK  160  A    between atoms: _394  and  _396
REMARK  161  A    between atoms: _396  and  _397
REMARK  162  A    between atoms: _396  and  _399
REMARK  163  A    between atoms: _402  and  _404
REMARK  164  A    between atoms: _404  and  _405
REMARK  165  A    between atoms: _404  and  _407
REMARK  166  A    between atoms: _407  and  _408
REMARK  167  A    between atoms: _408  and  _409
REMARK  168  A    between atoms: _409  and  _410
REMARK  169  A    between atoms: _410  and  _411
REMARK  170  A    between atoms: _415  and  _417
REMARK  171  A    between atoms: _417  and  _418
REMARK  172  A    between atoms: _417  and  _420
REMARK  173  A    between atoms: _420  and  _421
REMARK  174  A    between atoms: _421  and  _422
REMARK  175  A    between atoms: _424  and  _426
REMARK  176  A    between atoms: _426  and  _427
REMARK  177  A    between atoms: _426  and  _429
REMARK  178  A    between atoms: _429  and  _430
REMARK  179  A    between atoms: _433  and  _435
REMARK  180  A    between atoms: _435  and  _436
REMARK  181  A    between atoms: _435  and  _438
REMARK  182  A    between atoms: _441  and  _443
REMARK  183  A    between atoms: _443  and  _444
REMARK  184  A    between atoms: _446  and  _448
REMARK  185  A    between atoms: _448  and  _449
REMARK  186  A    between atoms: _448  and  _451
REMARK  187  A    between atoms: _451  and  _452
REMARK  188  A    between atoms: _455  and  _457
REMARK  189  A    between atoms: _457  and  _458
REMARK  190  A    between atoms: _460  and  _462
REMARK  191  A    between atoms: _462  and  _463
REMARK  192  A    between atoms: _465  and  _467
REMARK  193  A    between atoms: _467  and  _468
REMARK  194  A    between atoms: _467  and  _470
REMARK  195  A    between atoms: _470  and  _471
REMARK  196  A    between atoms: _474  and  _476
REMARK  197  A    between atoms: _476  and  _477
REMARK  198  A    between atoms: _476  and  _479
REMARK  199  A    between atoms: _479  and  _480
REMARK  200  A    between atoms: _483  and  _485
REMARK  201  A    between atoms: _485  and  _486
REMARK  202  A    between atoms: _485  and  _488
REMARK  203  A    between atoms: _488  and  _489
REMARK  204  A    between atoms: _493  and  _494
REMARK  205  A    between atoms: _499  and  _501
REMARK  206  A    between atoms: _501  and  _502
REMARK  207  A    between atoms: _501  and  _504
REMARK  208  A    between atoms: _507  and  _509
REMARK  209  A    between atoms: _509  and  _510
REMARK  210  A    between atoms: _509  and  _512
REMARK  211  A    between atoms: _512  and  _513
REMARK  212  A    between atoms: _518  and  _520
REMARK  213  A    between atoms: _520  and  _521
REMARK  214  A    between atoms: _520  and  _523
REMARK  215  A    between atoms: _523  and  _524
REMARK  216  A    between atoms: _527  and  _529
REMARK  217  A    between atoms: _529  and  _530
REMARK  218  A    between atoms: _529  and  _532
REMARK  219  A    between atoms: _532  and  _533
REMARK  220  A    between atoms: _536  and  _538
REMARK  221  A    between atoms: _538  and  _539
REMARK  222  A    between atoms: _541  and  _543
REMARK  223  A    between atoms: _543  and  _544
REMARK  224  A    between atoms: _543  and  _546
REMARK  225  A    between atoms: _546  and  _547
REMARK  226  A    between atoms: _547  and  _548
REMARK  227  A    between atoms: _548  and  _549
REMARK  228  A    between atoms: _558  and  _560
REMARK  229  A    between atoms: _560  and  _561
REMARK  230  A    between atoms: _560  and  _563
REMARK  231  A    between atoms: _563  and  _564
REMARK                            x       y       z     vdW  Elec       q    Type
REMARK                         _______ _______ _______ _____ _____    ______ ____
ROOT
ATOM      1  O   HOH     1      -8.787  14.267 -20.869  0.00  0.00    +0.000 OA
ENDROOT
TORSDOF 0
REMARK  Name = ../refined-set-2016/3cyw/3cyw_pocket.pdb
REMARK  231 active torsions:
REMARK  status: ('A' for Active; 'I' for Inactive)
REMARK    1  A    between atoms: _1  and  _3
REMARK    2  A    between atoms: _3  and  _4
REMARK    3  A    between atoms: _3  and  _6
REMARK    4  A    between atoms: _6  and  _7
REMARK    5  A    between atoms: _7  and  _8
REMARK    6  A    between atoms: _8  and  _9
REMARK    7  A    between atoms: _18  and  _20
REMARK    8  A    between atoms: _20  and  _21
REMARK    9  A    between atoms: _20  and  _23
REMARK   10  A    between atoms: _23  and  _24
REMARK   11  A    between atoms: _27  and  _29
REMARK   12  A    between atoms: _29  and  _30
REMARK   13  A    between atoms: _29  and  _32
REMARK   14  A    between atoms: _32  and  _33
REMARK   15  A    between atoms: _36  and  _38
REMARK   16  A    between atoms: _38  and  _39
REMARK   17  A    between atoms: _38  and  _41
REMARK   18  A    between atoms: _41  and  _42
REMARK   19  A    between atoms: _45  and  _47
REMARK   20  A    between atoms: _47  and  _48
REMARK   21  A    between atoms: _47  and  _50
REMARK   22  A    between atoms: _50  and  _51
REMARK   23  A    between atoms: _54  and  _56
REMARK   24  A    between atoms: _56  and  _57
REMARK   25  A    between atoms: _59  and  _61
REMARK   26  A    between atoms: _61  and  _62
REMARK   27  A    between atoms: _65  and  _67
REMARK   28  A    between atoms: _67  and  _68
REMARK   29  A    between atoms: _67  and  _70
REMARK   30  A    between atoms: _70  and  _71
REMARK   31  A    between atoms: _74  and  _76
REMARK   32  A    between atoms: _76  and  _77
REMARK   33  A    between atoms: _76  and  _79
REMARK   34  A    between atoms: _79  and  _80
REMARK   35  A    between atoms: _83  and  _85
REMARK   36  A    between atoms: _85  and  _86
REMARK   37  A    between atoms: _85  and  _88
REMARK   38  A    between atoms: _88  and  _89
REMARK   39  A    between atoms: _92  and  _94
REMARK   40  A    between atoms: _94  and  _95
REMARK   41  A    between atoms: _94  and  _97
REMARK   42  A    between atoms: _100  and  _102
REMARK   43  A    between atoms: _102  and  _103
REMARK   44  A    between atoms: _102  and  _105
REMARK   45  A    between atoms: _105  and  _106
REMARK   46  A    between atoms: _109  and  _111
REMARK   47  A    between atoms: _111  and  _112
REMARK   48  A    between atoms: _111  and  _114
REMARK   49  A    between atoms: _115  and  _116
REMARK   50  A    between atoms: _116  and  _117
REMARK   51  A    between atoms: _117  and  _118
REMARK   52  A    between atoms: _122  and  _124
REMARK   53  A    between atoms: _124  and  _125
REMARK   54  A    between atoms: _124  and  _127
REMARK   55  A    between atoms: _127  and  _128
REMARK   56  A    between atoms: _128  and  _129
REMARK   57  A    between atoms: _131  and  _133
REMARK   58  A    between atoms: _133  and  _134
REMARK   59  A    between atoms: _133  and  _136
REMARK   60  A    between atoms: _136  and  _137
REMARK   61  A    between atoms: _140  and  _142
REMARK   62  A    between atoms: _142  and  _143
REMARK   63  A    between atoms: _142  and  _145
REMARK   64  A    between atoms: _148  and  _150
REMARK   65  A    between atoms: _150  and  _151
REMARK   66  A    between atoms: _153  and  _155
REMARK   67  A    between atoms: _155  and  _156
REMARK   68  A    between atoms: _155  and  _158
REMARK   69  A    between atoms: _158  and  _159
REMARK   70  A    between atoms: _162  and  _164
REMARK   71  A    between atoms: _164  and  _165
REMARK   72  A    between atoms: _167  and  _169
REMARK   73  A    between atoms: _169  and  _170
REMARK   74  A    between atoms: _172  and  _174
REMARK   75  A    between atoms: _174  and  _175
REMARK   76  A    between atoms: _174  and  _177
REMARK   77  A    between atoms: _177  and  _178
REMARK   78  A    between atoms: _184  and  _186
REMARK   79  A    between atoms: _186  and  _187
REMARK   80  A    between atoms: _186  and  _189
REMARK   81  A    between atoms: _189  and  _190
REMARK   82  A    between atoms: _193  and  _195
REMARK   83  A    between atoms: _195  and  _196
REMARK   84  A    between atoms: _195  and  _198
REMARK   85  A    between atoms: _201  and  _203
REMARK   86  A    between atoms: _203  and  _204
REMARK   87  A    between atoms: _203  and  _206
REMARK   88  A    between atoms: _206  and  _207
REMARK   89  A    between atoms: _211  and  _212
REMARK   90  A    between atoms: _217  and  _219
REMARK   91  A    between atoms: _219  and  _220
REMARK   92  A    between atoms: _219  and  _222
REMARK   93  A    between atoms: _222  and  _223
REMARK   94  A    between atoms: _227  and  _228
REMARK   95  A    between atoms: _233  and  _235
REMARK   96  A    between atoms: _235  and  _236
REMARK   97  A    between atoms: _235  and  _238
REMARK   98  A    between atoms: _241  and  _243
REMARK   99  A    between atoms: _243  and  _244
REMARK  100  A    between atoms: _243  and  _246
REMARK  101  A    between atoms: _246  and  _247
REMARK  102  A    between atoms: _252  and  _254
REMARK  103  A    between atoms: _254  and  _255
REMARK  104  A    between atoms: _254  and  _257
REMARK  105  A    between atoms: _257  and  _258
REMARK  106  A    between atoms: _261  and  _263
REMARK  107  A    between atoms: _263  and  _264
REMARK  108  A    between atoms: _263  and  _266
REMARK  109  A    between atoms: _266  and  _267
REMARK  110  A    between atoms: _270  and  _272
REMARK  111  A    between atoms: _272  and  _273
REMARK  112  A    between atoms: _275  and  _277
REMARK  113  A    between atoms: _277  and  _278
REMARK  114  A    between atoms: _277  and  _280
REMARK  115  A    between atoms: _280  and  _281
REMARK  116  A    between atoms: _281  and  _282
REMARK  117  A    between atoms: _282  and  _283
REMARK  118  A    between atoms: _292  and  _294
REMARK  119  A    between atoms: _294  and  _295
REMARK  120  A    between atoms: _294  and  _297
REMARK  121  A    between atoms: _297  and  _298
REMARK  122  A    between atoms: _303  and  _305
REMARK  123  A    between atoms: _305  and  _306
REMARK  124  A    between atoms: _305  and  _308
REMARK  125  A    between atoms: _308  and  _309
REMARK  126  A    between atoms: _309  and  _310
REMARK  127  A    between atoms: _310  and  _311
REMARK  128  A    between atoms: _320  and  _322
REMARK  129  A    between atoms: _322  and  _323
REMARK  130  A    between atoms: _322  and  _325
REMARK  131  A    between atoms: _325  and  _326
REMARK  132  A    between atoms: _329  and  _331
REMARK  133  A    between atoms: _331  and  _332
REMARK  134  A    between atoms: _331  and  _334
REMARK  135  A    between atoms: _334  and  _335
REMARK  136  A    between atoms: _338  and  _340
REMARK  137  A    between atoms: _340  and  _341
REMARK  138  A    between atoms: _340  and  _343
REMARK  139  A    between atoms: _343  and  _344
REMARK  140  A    between atoms: _347  and  _349
REMARK  141  A    between atoms: _349  and  _350
REMARK  142  A    between atoms: _349  and  _352
REMARK  143  A    between atoms: _352  and  _353
REMARK  144  A    between atoms: _356  and  _358
REMARK  145  A    between atoms: _358  and  _359
REMARK  146  A    between atoms: _361  and  _363
REMARK  147  A    between atoms: _363  and  _364
REMARK  148  A    between atoms: _367  and  _369
REMARK  149  A    between atoms: _369  and  _370
REMARK  150  A    between atoms: _369  and  _372
REMARK  151  A    between atoms: _372  and  _373
REMARK  152  A    between atoms: _376  and  _378
REMARK  153  A    between atoms: _378  and  _379
REMARK  154  A    between atoms: _378  and  _381
REMARK  155  A    between atoms: _381  and  _382
REMARK  156  A    between atoms: _385  and  _387
REMARK  157  A    between atoms: _387  and  _388
REMARK  158  A    between atoms: _387  and  _390
REMARK  159  A    between atoms: _390  and  _391
REMARK  160  A    between atoms: _394  and  _396
REMARK  161  A    between atoms: _396  and  _397
REMARK  162  A    between atoms: _396  and  _399
REMARK  163  A    between atoms: _402  and  _404
REMARK  164  A    between atoms: _404  and  _405
REMARK  165  A    between atoms: _404  and  _407
REMARK  166  A    between atoms: _407  and  _408
REMARK  167  A    between atoms: _408  and  _409
REMARK  168  A    between atoms: _409  and  _410
REMARK  169  A    between atoms: _410  and  _411
REMARK  170  A    between atoms: _415  and  _417
REMARK  171  A    between atoms: _417  and  _418
REMARK  172  A    between atoms: _417  and  _420
REMARK  173  A    between atoms: _420  and  _421
REMARK  174  A    between atoms: _421  and  _422
REMARK  175  A    between atoms: _424  and  _426
REMARK  176  A    between atoms: _426  and  _427
REMARK  177  A    between atoms: _426  and  _429
REMARK  178  A    between atoms: _429  and  _430
REMARK  179  A    between atoms: _433  and  _435
REMARK  180  A    between atoms: _435  and  _436
REMARK  181  A    between atoms: _435  and  _438
REMARK  182  A    between atoms: _441  and  _443
REMARK  183  A    between atoms: _443  and  _444
REMARK  184  A    between atoms: _446  and  _448
REMARK  185  A    between atoms: _448  and  _449
REMARK  186  A    between atoms: _448  and  _451
REMARK  187  A    between atoms: _451  and  _452
REMARK  188  A    between atoms: _455  and  _457
REMARK  189  A    between atoms: _457  and  _458
REMARK  190  A    between atoms: _460  and  _462
REMARK  191  A    between atoms: _462  and  _463
REMARK  192  A    between atoms: _465  and  _467
REMARK  193  A    between atoms: _467  and  _468
REMARK  194  A    between atoms: _467  and  _470
REMARK  195  A    between atoms: _470  and  _471
REMARK  196  A    between atoms: _474  and  _476
REMARK  197  A    between atoms: _476  and  _477
REMARK  198  A    between atoms: _476  and  _479
REMARK  199  A    between atoms: _479  and  _480
REMARK  200  A    between atoms: _483  and  _485
REMARK  201  A    between atoms: _485  and  _486
REMARK  202  A    between atoms: _485  and  _488
REMARK  203  A    between atoms: _488  and  _489
REMARK  204  A    between atoms: _493  and  _494
REMARK  205  A    between atoms: _499  and  _501
REMARK  206  A    between atoms: _501  and  _502
REMARK  207  A    between atoms: _501  and  _504
REMARK  208  A    between atoms: _507  and  _509
REMARK  209  A    between atoms: _509  and  _510
REMARK  210  A    between atoms: _509  and  _512
REMARK  211  A    between atoms: _512  and  _513
REMARK  212  A    between atoms: _518  and  _520
REMARK  213  A    between atoms: _520  and  _521
REMARK  214  A    between atoms: _520  and  _523
REMARK  215  A    between atoms: _523  and  _524
REMARK  216  A    between atoms: _527  and  _529
REMARK  217  A    between atoms: _529  and  _530
REMARK  218  A    between atoms: _529  and  _532
REMARK  219  A    between atoms: _532  and  _533
REMARK  220  A    between atoms: _536  and  _538
REMARK  221  A    between atoms: _538  and  _539
REMARK  222  A    between atoms: _541  and  _543
REMARK  223  A    between atoms: _543  and  _544
REMARK  224  A    between atoms: _543  and  _546
REMARK  225  A    between atoms: _546  and  _547
REMARK  226  A    between atoms: _547  and  _548
REMARK  227  A    between atoms: _548  and  _549
REMARK  228  A    between atoms: _558  and  _560
REMARK  229  A    between atoms: _560  and  _561
REMARK  230  A    between atoms: _560  and  _563
REMARK  231  A    between atoms: _563  and  _564
REMARK                            x       y       z     vdW  Elec       q    Type
REMARK                         _______ _______ _______ _____ _____    ______ ____
ROOT
ATOM      1  O   HOH     1      -8.124   7.149 -17.354  0.00  0.00    +0.000 OA
ENDROOT
TORSDOF 0
REMARK  Name = ../refined-set-2016/3cyw/3cyw_pocket.pdb
REMARK  231 active torsions:
REMARK  status: ('A' for Active; 'I' for Inactive)
REMARK    1  A    between atoms: _1  and  _3
REMARK    2  A    between atoms: _3  and  _4
REMARK    3  A    between atoms: _3  and  _6
REMARK    4  A    between atoms: _6  and  _7
REMARK    5  A    between atoms: _7  and  _8
REMARK    6  A    between atoms: _8  and  _9
REMARK    7  A    between atoms: _18  and  _20
REMARK    8  A    between atoms: _20  and  _21
REMARK    9  A    between atoms: _20  and  _23
REMARK   10  A    between atoms: _23  and  _24
REMARK   11  A    between atoms: _27  and  _29
REMARK   12  A    between atoms: _29  and  _30
REMARK   13  A    between atoms: _29  and  _32
REMARK   14  A    between atoms: _32  and  _33
REMARK   15  A    between atoms: _36  and  _38
REMARK   16  A    between atoms: _38  and  _39
REMARK   17  A    between atoms: _38  and  _41
REMARK   18  A    between atoms: _41  and  _42
REMARK   19  A    between atoms: _45  and  _47
REMARK   20  A    between atoms: _47  and  _48
REMARK   21  A    between atoms: _47  and  _50
REMARK   22  A    between atoms: _50  and  _51
REMARK   23  A    between atoms: _54  and  _56
REMARK   24  A    between atoms: _56  and  _57
REMARK   25  A    between atoms: _59  and  _61
REMARK   26  A    between atoms: _61  and  _62
REMARK   27  A    between atoms: _65  and  _67
REMARK   28  A    between atoms: _67  and  _68
REMARK   29  A    between atoms: _67  and  _70
REMARK   30  A    between atoms: _70  and  _71
REMARK   31  A    between atoms: _74  and  _76
REMARK   32  A    between atoms: _76  and  _77
REMARK   33  A    between atoms: _76  and  _79
REMARK   34  A    between atoms: _79  and  _80
REMARK   35  A    between atoms: _83  and  _85
REMARK   36  A    between atoms: _85  and  _86
REMARK   37  A    between atoms: _85  and  _88
REMARK   38  A    between atoms: _88  and  _89
REMARK   39  A    between atoms: _92  and  _94
REMARK   40  A    between atoms: _94  and  _95
REMARK   41  A    between atoms: _94  and  _97
REMARK   42  A    between atoms: _100  and  _102
REMARK   43  A    between atoms: _102  and  _103
REMARK   44  A    between atoms: _102  and  _105
REMARK   45  A    between atoms: _105  and  _106
REMARK   46  A    between atoms: _109  and  _111
REMARK   47  A    between atoms: _111  and  _112
REMARK   48  A    between atoms: _111  and  _114
REMARK   49  A    between atoms: _115  and  _116
REMARK   50  A    between atoms: _116  and  _117
REMARK   51  A    between atoms: _117  and  _118
REMARK   52  A    between atoms: _122  and  _124
REMARK   53  A    between atoms: _124  and  _125
REMARK   54  A    between atoms: _124  and  _127
REMARK   55  A    between atoms: _127  and  _128
REMARK   56  A    between atoms: _128  and  _129
REMARK   57  A    between atoms: _131  and  _133
REMARK   58  A    between atoms: _133  and  _134
REMARK   59  A    between atoms: _133  and  _136
REMARK   60  A    between atoms: _136  and  _137
REMARK   61  A    between atoms: _140  and  _142
REMARK   62  A    between atoms: _142  and  _143
REMARK   63  A    between atoms: _142  and  _145
REMARK   64  A    between atoms: _148  and  _150
REMARK   65  A    between atoms: _150  and  _151
REMARK   66  A    between atoms: _153  and  _155
REMARK   67  A    between atoms: _155  and  _156
REMARK   68  A    between atoms: _155  and  _158
REMARK   69  A    between atoms: _158  and  _159
REMARK   70  A    between atoms: _162  and  _164
REMARK   71  A    between atoms: _164  and  _165
REMARK   72  A    between atoms: _167  and  _169
REMARK   73  A    between atoms: _169  and  _170
REMARK   74  A    between atoms: _172  and  _174
REMARK   75  A    between atoms: _174  and  _175
REMARK   76  A    between atoms: _174  and  _177
REMARK   77  A    between atoms: _177  and  _178
REMARK   78  A    between atoms: _184  and  _186
REMARK   79  A    between atoms: _186  and  _187
REMARK   80  A    between atoms: _186  and  _189
REMARK   81  A    between atoms: _189  and  _190
REMARK   82  A    between atoms: _193  and  _195
REMARK   83  A    between atoms: _195  and  _196
REMARK   84  A    between atoms: _195  and  _198
REMARK   85  A    between atoms: _201  and  _203
REMARK   86  A    between atoms: _203  and  _204
REMARK   87  A    between atoms: _203  and  _206
REMARK   88  A    between atoms: _206  and  _207
REMARK   89  A    between atoms: _211  and  _212
REMARK   90  A    between atoms: _217  and  _219
REMARK   91  A    between atoms: _219  and  _220
REMARK   92  A    between atoms: _219  and  _222
REMARK   93  A    between atoms: _222  and  _223
REMARK   94  A    between atoms: _227  and  _228
REMARK   95  A    between atoms: _233  and  _235
REMARK   96  A    between atoms: _235  and  _236
REMARK   97  A    between atoms: _235  and  _238
REMARK   98  A    between atoms: _241  and  _243
REMARK   99  A    between atoms: _243  and  _244
REMARK  100  A    between atoms: _243  and  _246
REMARK  101  A    between atoms: _246  and  _247
REMARK  102  A    between atoms: _252  and  _254
REMARK  103  A    between atoms: _254  and  _255
REMARK  104  A    between atoms: _254  and  _257
REMARK  105  A    between atoms: _257  and  _258
REMARK  106  A    between atoms: _261  and  _263
REMARK  107  A    between atoms: _263  and  _264
REMARK  108  A    between atoms: _263  and  _266
REMARK  109  A    between atoms: _266  and  _267
REMARK  110  A    between atoms: _270  and  _272
REMARK  111  A    between atoms: _272  and  _273
REMARK  112  A    between atoms: _275  and  _277
REMARK  113  A    between atoms: _277  and  _278
REMARK  114  A    between atoms: _277  and  _280
REMARK  115  A    between atoms: _280  and  _281
REMARK  116  A    between atoms: _281  and  _282
REMARK  117  A    between atoms: _282  and  _283
REMARK  118  A    between atoms: _292  and  _294
REMARK  119  A    between atoms: _294  and  _295
REMARK  120  A    between atoms: _294  and  _297
REMARK  121  A    between atoms: _297  and  _298
REMARK  122  A    between atoms: _303  and  _305
REMARK  123  A    between atoms: _305  and  _306
REMARK  124  A    between atoms: _305  and  _308
REMARK  125  A    between atoms: _308  and  _309
REMARK  126  A    between atoms: _309  and  _310
REMARK  127  A    between atoms: _310  and  _311
REMARK  128  A    between atoms: _320  and  _322
REMARK  129  A    between atoms: _322  and  _323
REMARK  130  A    between atoms: _322  and  _325
REMARK  131  A    between atoms: _325  and  _326
REMARK  132  A    between atoms: _329  and  _331
REMARK  133  A    between atoms: _331  and  _332
REMARK  134  A    between atoms: _331  and  _334
REMARK  135  A    between atoms: _334  and  _335
REMARK  136  A    between atoms: _338  and  _340
REMARK  137  A    between atoms: _340  and  _341
REMARK  138  A    between atoms: _340  and  _343
REMARK  139  A    between atoms: _343  and  _344
REMARK  140  A    between atoms: _347  and  _349
REMARK  141  A    between atoms: _349  and  _350
REMARK  142  A    between atoms: _349  and  _352
REMARK  143  A    between atoms: _352  and  _353
REMARK  144  A    between atoms: _356  and  _358
REMARK  145  A    between atoms: _358  and  _359
REMARK  146  A    between atoms: _361  and  _363
REMARK  147  A    between atoms: _363  and  _364
REMARK  148  A    between atoms: _367  and  _369
REMARK  149  A    between atoms: _369  and  _370
REMARK  150  A    between atoms: _369  and  _372
REMARK  151  A    between atoms: _372  and  _373
REMARK  152  A    between atoms: _376  and  _378
REMARK  153  A    between atoms: _378  and  _379
REMARK  154  A    between atoms: _378  and  _381
REMARK  155  A    between atoms: _381  and  _382
REMARK  156  A    between atoms: _385  and  _387
REMARK  157  A    between atoms: _387  and  _388
REMARK  158  A    between atoms: _387  and  _390
REMARK  159  A    between atoms: _390  and  _391
REMARK  160  A    between atoms: _394  and  _396
REMARK  161  A    between atoms: _396  and  _397
REMARK  162  A    between atoms: _396  and  _399
REMARK  163  A    between atoms: _402  and  _404
REMARK  164  A    between atoms: _404  and  _405
REMARK  165  A    between atoms: _404  and  _407
REMARK  166  A    between atoms: _407  and  _408
REMARK  167  A    between atoms: _408  and  _409
REMARK  168  A    between atoms: _409  and  _410
REMARK  169  A    between atoms: _410  and  _411
REMARK  170  A    between atoms: _415  and  _417
REMARK  171  A    between atoms: _417  and  _418
REMARK  172  A    between atoms: _417  and  _420
REMARK  173  A    between atoms: _420  and  _421
REMARK  174  A    between atoms: _421  and  _422
REMARK  175  A    between atoms: _424  and  _426
REMARK  176  A    between atoms: _426  and  _427
REMARK  177  A    between atoms: _426  and  _429
REMARK  178  A    between atoms: _429  and  _430
REMARK  179  A    between atoms: _433  and  _435
REMARK  180  A    between atoms: _435  and  _436
REMARK  181  A    between atoms: _435  and  _438
REMARK  182  A    between atoms: _441  and  _443
REMARK  183  A    between atoms: _443  and  _444
REMARK  184  A    between atoms: _446  and  _448
REMARK  185  A    between atoms: _448  and  _449
REMARK  186  A    between atoms: _448  and  _451
REMARK  187  A    between atoms: _451  and  _452
REMARK  188  A    between atoms: _455  and  _457
REMARK  189  A    between atoms: _457  and  _458
REMARK  190  A    between atoms: _460  and  _462
REMARK  191  A    between atoms: _462  and  _463
REMARK  192  A    between atoms: _465  and  _467
REMARK  193  A    between atoms: _467  and  _468
REMARK  194  A    between atoms: _467  and  _470
REMARK  195  A    between atoms: _470  and  _471
REMARK  196  A    between atoms: _474  and  _476
REMARK  197  A    between atoms: _476  and  _477
REMARK  198  A    between atoms: _476  and  _479
REMARK  199  A    between atoms: _479  and  _480
REMARK  200  A    between atoms: _483  and  _485
REMARK  201  A    between atoms: _485  and  _486
REMARK  202  A    between atoms: _485  and  _488
REMARK  203  A    between atoms: _488  and  _489
REMARK  204  A    between atoms: _493  and  _494
REMARK  205  A    between atoms: _499  and  _501
REMARK  206  A    between atoms: _501  and  _502
REMARK  207  A    between atoms: _501  and  _504
REMARK  208  A    between atoms: _507  and  _509
REMARK  209  A    between atoms: _509  and  _510
REMARK  210  A    between atoms: _509  and  _512
REMARK  211  A    between atoms: _512  and  _513
REMARK  212  A    between atoms: _518  and  _520
REMARK  213  A    between atoms: _520  and  _521
REMARK  214  A    between atoms: _520  and  _523
REMARK  215  A    between atoms: _523  and  _524
REMARK  216  A    between atoms: _527  and  _529
REMARK  217  A    between atoms: _529  and  _530
REMARK  218  A    between atoms: _529  and  _532
REMARK  219  A    between atoms: _532  and  _533
REMARK  220  A    between atoms: _536  and  _538
REMARK  221  A    between atoms: _538  and  _539
REMARK  222  A    between atoms: _541  and  _543
REMARK  223  A    between atoms: _543  and  _544
REMARK  224  A    between atoms: _543  and  _546
REMARK  225  A    between atoms: _546  and  _547
REMARK  226  A    between atoms: _547  and  _548
REMARK  227  A    between atoms: _548  and  _549
REMARK  228  A    between atoms: _558  and  _560
REMARK  229  A    between atoms: _560  and  _561
REMARK  230  A    between atoms: _560  and  _563
REMARK  231  A    between atoms: _563  and  _564
REMARK                            x       y       z     vdW  Elec       q    Type
REMARK                         _______ _______ _______ _____ _____    ______ ____
ROOT
ATOM      1  O   HOH     1      -7.149  15.837 -22.426  0.00  0.00    +0.000 OA
ENDROOT
TORSDOF 0
REMARK  Name = ../refined-set-2016/3cyw/3cyw_pocket.pdb
REMARK  231 active torsions:
REMARK  status: ('A' for Active; 'I' for Inactive)
REMARK    1  A    between atoms: _1  and  _3
REMARK    2  A    between atoms: _3  and  _4
REMARK    3  A    between atoms: _3  and  _6
REMARK    4  A    between atoms: _6  and  _7
REMARK    5  A    between atoms: _7  and  _8
REMARK    6  A    between atoms: _8  and  _9
REMARK    7  A    between atoms: _18  and  _20
REMARK    8  A    between atoms: _20  and  _21
REMARK    9  A    between atoms: _20  and  _23
REMARK   10  A    between atoms: _23  and  _24
REMARK   11  A    between atoms: _27  and  _29
REMARK   12  A    between atoms: _29  and  _30
REMARK   13  A    between atoms: _29  and  _32
REMARK   14  A    between atoms: _32  and  _33
REMARK   15  A    between atoms: _36  and  _38
REMARK   16  A    between atoms: _38  and  _39
REMARK   17  A    between atoms: _38  and  _41
REMARK   18  A    between atoms: _41  and  _42
REMARK   19  A    between atoms: _45  and  _47
REMARK   20  A    between atoms: _47  and  _48
REMARK   21  A    between atoms: _47  and  _50
REMARK   22  A    between atoms: _50  and  _51
REMARK   23  A    between atoms: _54  and  _56
REMARK   24  A    between atoms: _56  and  _57
REMARK   25  A    between atoms: _59  and  _61
REMARK   26  A    between atoms: _61  and  _62
REMARK   27  A    between atoms: _65  and  _67
REMARK   28  A    between atoms: _67  and  _68
REMARK   29  A    between atoms: _67  and  _70
REMARK   30  A    between atoms: _70  and  _71
REMARK   31  A    between atoms: _74  and  _76
REMARK   32  A    between atoms: _76  and  _77
REMARK   33  A    between atoms: _76  and  _79
REMARK   34  A    between atoms: _79  and  _80
REMARK   35  A    between atoms: _83  and  _85
REMARK   36  A    between atoms: _85  and  _86
REMARK   37  A    between atoms: _85  and  _88
REMARK   38  A    between atoms: _88  and  _89
REMARK   39  A    between atoms: _92  and  _94
REMARK   40  A    between atoms: _94  and  _95
REMARK   41  A    between atoms: _94  and  _97
REMARK   42  A    between atoms: _100  and  _102
REMARK   43  A    between atoms: _102  and  _103
REMARK   44  A    between atoms: _102  and  _105
REMARK   45  A    between atoms: _105  and  _106
REMARK   46  A    between atoms: _109  and  _111
REMARK   47  A    between atoms: _111  and  _112
REMARK   48  A    between atoms: _111  and  _114
REMARK   49  A    between atoms: _115  and  _116
REMARK   50  A    between atoms: _116  and  _117
REMARK   51  A    between atoms: _117  and  _118
REMARK   52  A    between atoms: _122  and  _124
REMARK   53  A    between atoms: _124  and  _125
REMARK   54  A    between atoms: _124  and  _127
REMARK   55  A    between atoms: _127  and  _128
REMARK   56  A    between atoms: _128  and  _129
REMARK   57  A    between atoms: _131  and  _133
REMARK   58  A    between atoms: _133  and  _134
REMARK   59  A    between atoms: _133  and  _136
REMARK   60  A    between atoms: _136  and  _137
REMARK   61  A    between atoms: _140  and  _142
REMARK   62  A    between atoms: _142  and  _143
REMARK   63  A    between atoms: _142  and  _145
REMARK   64  A    between atoms: _148  and  _150
REMARK   65  A    between atoms: _150  and  _151
REMARK   66  A    between atoms: _153  and  _155
REMARK   67  A    between atoms: _155  and  _156
REMARK   68  A    between atoms: _155  and  _158
REMARK   69  A    between atoms: _158  and  _159
REMARK   70  A    between atoms: _162  and  _164
REMARK   71  A    between atoms: _164  and  _165
REMARK   72  A    between atoms: _167  and  _169
REMARK   73  A    between atoms: _169  and  _170
REMARK   74  A    between atoms: _172  and  _174
REMARK   75  A    between atoms: _174  and  _175
REMARK   76  A    between atoms: _174  and  _177
REMARK   77  A    between atoms: _177  and  _178
REMARK   78  A    between atoms: _184  and  _186
REMARK   79  A    between atoms: _186  and  _187
REMARK   80  A    between atoms: _186  and  _189
REMARK   81  A    between atoms: _189  and  _190
REMARK   82  A    between atoms: _193  and  _195
REMARK   83  A    between atoms: _195  and  _196
REMARK   84  A    between atoms: _195  and  _198
REMARK   85  A    between atoms: _201  and  _203
REMARK   86  A    between atoms: _203  and  _204
REMARK   87  A    between atoms: _203  and  _206
REMARK   88  A    between atoms: _206  and  _207
REMARK   89  A    between atoms: _211  and  _212
REMARK   90  A    between atoms: _217  and  _219
REMARK   91  A    between atoms: _219  and  _220
REMARK   92  A    between atoms: _219  and  _222
REMARK   93  A    between atoms: _222  and  _223
REMARK   94  A    between atoms: _227  and  _228
REMARK   95  A    between atoms: _233  and  _235
REMARK   96  A    between atoms: _235  and  _236
REMARK   97  A    between atoms: _235  and  _238
REMARK   98  A    between atoms: _241  and  _243
REMARK   99  A    between atoms: _243  and  _244
REMARK  100  A    between atoms: _243  and  _246
REMARK  101  A    between atoms: _246  and  _247
REMARK  102  A    between atoms: _252  and  _254
REMARK  103  A    between atoms: _254  and  _255
REMARK  104  A    between atoms: _254  and  _257
REMARK  105  A    between atoms: _257  and  _258
REMARK  106  A    between atoms: _261  and  _263
REMARK  107  A    between atoms: _263  and  _264
REMARK  108  A    between atoms: _263  and  _266
REMARK  109  A    between atoms: _266  and  _267
REMARK  110  A    between atoms: _270  and  _272
REMARK  111  A    between atoms: _272  and  _273
REMARK  112  A    between atoms: _275  and  _277
REMARK  113  A    between atoms: _277  and  _278
REMARK  114  A    between atoms: _277  and  _280
REMARK  115  A    between atoms: _280  and  _281
REMARK  116  A    between atoms: _281  and  _282
REMARK  117  A    between atoms: _282  and  _283
REMARK  118  A    between atoms: _292  and  _294
REMARK  119  A    between atoms: _294  and  _295
REMARK  120  A    between atoms: _294  and  _297
REMARK  121  A    between atoms: _297  and  _298
REMARK  122  A    between atoms: _303  and  _305
REMARK  123  A    between atoms: _305  and  _306
REMARK  124  A    between atoms: _305  and  _308
REMARK  125  A    between atoms: _308  and  _309
REMARK  126  A    between atoms: _309  and  _310
REMARK  127  A    between atoms: _310  and  _311
REMARK  128  A    between atoms: _320  and  _322
REMARK  129  A    between atoms: _322  and  _323
REMARK  130  A    between atoms: _322  and  _325
REMARK  131  A    between atoms: _325  and  _326
REMARK  132  A    between atoms: _329  and  _331
REMARK  133  A    between atoms: _331  and  _332
REMARK  134  A    between atoms: _331  and  _334
REMARK  135  A    between atoms: _334  and  _335
REMARK  136  A    between atoms: _338  and  _340
REMARK  137  A    between atoms: _340  and  _341
REMARK  138  A    between atoms: _340  and  _343
REMARK  139  A    between atoms: _343  and  _344
REMARK  140  A    between atoms: _347  and  _349
REMARK  141  A    between atoms: _349  and  _350
REMARK  142  A    between atoms: _349  and  _352
REMARK  143  A    between atoms: _352  and  _353
REMARK  144  A    between atoms: _356  and  _358
REMARK  145  A    between atoms: _358  and  _359
REMARK  146  A    between atoms: _361  and  _363
REMARK  147  A    between atoms: _363  and  _364
REMARK  148  A    between atoms: _367  and  _369
REMARK  149  A    between atoms: _369  and  _370
REMARK  150  A    between atoms: _369  and  _372
REMARK  151  A    between atoms: _372  and  _373
REMARK  152  A    between atoms: _376  and  _378
REMARK  153  A    between atoms: _378  and  _379
REMARK  154  A    between atoms: _378  and  _381
REMARK  155  A    between atoms: _381  and  _382
REMARK  156  A    between atoms: _385  and  _387
REMARK  157  A    between atoms: _387  and  _388
REMARK  158  A    between atoms: _387  and  _390
REMARK  159  A    between atoms: _390  and  _391
REMARK  160  A    between atoms: _394  and  _396
REMARK  161  A    between atoms: _396  and  _397
REMARK  162  A    between atoms: _396  and  _399
REMARK  163  A    between atoms: _402  and  _404
REMARK  164  A    between atoms: _404  and  _405
REMARK  165  A    between atoms: _404  and  _407
REMARK  166  A    between atoms: _407  and  _408
REMARK  167  A    between atoms: _408  and  _409
REMARK  168  A    between atoms: _409  and  _410
REMARK  169  A    between atoms: _410  and  _411
REMARK  170  A    between atoms: _415  and  _417
REMARK  171  A    between atoms: _417  and  _418
REMARK  172  A    between atoms: _417  and  _420
REMARK  173  A    between atoms: _420  and  _421
REMARK  174  A    between atoms: _421  and  _422
REMARK  175  A    between atoms: _424  and  _426
REMARK  176  A    between atoms: _426  and  _427
REMARK  177  A    between atoms: _426  and  _429
REMARK  178  A    between atoms: _429  and  _430
REMARK  179  A    between atoms: _433  and  _435
REMARK  180  A    between atoms: _435  and  _436
REMARK  181  A    between atoms: _435  and  _438
REMARK  182  A    between atoms: _441  and  _443
REMARK  183  A    between atoms: _443  and  _444
REMARK  184  A    between atoms: _446  and  _448
REMARK  185  A    between atoms: _448  and  _449
REMARK  186  A    between atoms: _448  and  _451
REMARK  187  A    between atoms: _451  and  _452
REMARK  188  A    between atoms: _455  and  _457
REMARK  189  A    between atoms: _457  and  _458
REMARK  190  A    between atoms: _460  and  _462
REMARK  191  A    between atoms: _462  and  _463
REMARK  192  A    between atoms: _465  and  _467
REMARK  193  A    between atoms: _467  and  _468
REMARK  194  A    between atoms: _467  and  _470
REMARK  195  A    between atoms: _470  and  _471
REMARK  196  A    between atoms: _474  and  _476
REMARK  197  A    between atoms: _476  and  _477
REMARK  198  A    between atoms: _476  and  _479
REMARK  199  A    between atoms: _479  and  _480
REMARK  200  A    between atoms: _483  and  _485
REMARK  201  A    between atoms: _485  and  _486
REMARK  202  A    between atoms: _485  and  _488
REMARK  203  A    between atoms: _488  and  _489
REMARK  204  A    between atoms: _493  and  _494
REMARK  205  A    between atoms: _499  and  _501
REMARK  206  A    between atoms: _501  and  _502
REMARK  207  A    between atoms: _501  and  _504
REMARK  208  A    between atoms: _507  and  _509
REMARK  209  A    between atoms: _509  and  _510
REMARK  210  A    between atoms: _509  and  _512
REMARK  211  A    between atoms: _512  and  _513
REMARK  212  A    between atoms: _518  and  _520
REMARK  213  A    between atoms: _520  and  _521
REMARK  214  A    between atoms: _520  and  _523
REMARK  215  A    between atoms: _523  and  _524
REMARK  216  A    between atoms: _527  and  _529
REMARK  217  A    between atoms: _529  and  _530
REMARK  218  A    between atoms: _529  and  _532
REMARK  219  A    between atoms: _532  and  _533
REMARK  220  A    between atoms: _536  and  _538
REMARK  221  A    between atoms: _538  and  _539
REMARK  222  A    between atoms: _541  and  _543
REMARK  223  A    between atoms: _543  and  _544
REMARK  224  A    between atoms: _543  and  _546
REMARK  225  A    between atoms: _546  and  _547
REMARK  226  A    between atoms: _547  and  _548
REMARK  227  A    between atoms: _548  and  _549
REMARK  228  A    between atoms: _558  and  _560
REMARK  229  A    between atoms: _560  and  _561
REMARK  230  A    between atoms: _560  and  _563
REMARK  231  A    between atoms: _563  and  _564
REMARK                            x       y       z     vdW  Elec       q    Type
REMARK                         _______ _______ _______ _____ _____    ______ ____
ROOT
ATOM      1  O   HOH     1      -8.601  15.008 -18.226  0.00  0.00    +0.000 OA
ENDROOT
TORSDOF 0
REMARK  Name = ../refined-set-2016/3cyw/3cyw_pocket.pdb
REMARK  231 active torsions:
REMARK  status: ('A' for Active; 'I' for Inactive)
REMARK    1  A    between atoms: _1  and  _3
REMARK    2  A    between atoms: _3  and  _4
REMARK    3  A    between atoms: _3  and  _6
REMARK    4  A    between atoms: _6  and  _7
REMARK    5  A    between atoms: _7  and  _8
REMARK    6  A    between atoms: _8  and  _9
REMARK    7  A    between atoms: _18  and  _20
REMARK    8  A    between atoms: _20  and  _21
REMARK    9  A    between atoms: _20  and  _23
REMARK   10  A    between atoms: _23  and  _24
REMARK   11  A    between atoms: _27  and  _29
REMARK   12  A    between atoms: _29  and  _30
REMARK   13  A    between atoms: _29  and  _32
REMARK   14  A    between atoms: _32  and  _33
REMARK   15  A    between atoms: _36  and  _38
REMARK   16  A    between atoms: _38  and  _39
REMARK   17  A    between atoms: _38  and  _41
REMARK   18  A    between atoms: _41  and  _42
REMARK   19  A    between atoms: _45  and  _47
REMARK   20  A    between atoms: _47  and  _48
REMARK   21  A    between atoms: _47  and  _50
REMARK   22  A    between atoms: _50  and  _51
REMARK   23  A    between atoms: _54  and  _56
REMARK   24  A    between atoms: _56  and  _57
REMARK   25  A    between atoms: _59  and  _61
REMARK   26  A    between atoms: _61  and  _62
REMARK   27  A    between atoms: _65  and  _67
REMARK   28  A    between atoms: _67  and  _68
REMARK   29  A    between atoms: _67  and  _70
REMARK   30  A    between atoms: _70  and  _71
REMARK   31  A    between atoms: _74  and  _76
REMARK   32  A    between atoms: _76  and  _77
REMARK   33  A    between atoms: _76  and  _79
REMARK   34  A    between atoms: _79  and  _80
REMARK   35  A    between atoms: _83  and  _85
REMARK   36  A    between atoms: _85  and  _86
REMARK   37  A    between atoms: _85  and  _88
REMARK   38  A    between atoms: _88  and  _89
REMARK   39  A    between atoms: _92  and  _94
REMARK   40  A    between atoms: _94  and  _95
REMARK   41  A    between atoms: _94  and  _97
REMARK   42  A    between atoms: _100  and  _102
REMARK   43  A    between atoms: _102  and  _103
REMARK   44  A    between atoms: _102  and  _105
REMARK   45  A    between atoms: _105  and  _106
REMARK   46  A    between atoms: _109  and  _111
REMARK   47  A    between atoms: _111  and  _112
REMARK   48  A    between atoms: _111  and  _114
REMARK   49  A    between atoms: _115  and  _116
REMARK   50  A    between atoms: _116  and  _117
REMARK   51  A    between atoms: _117  and  _118
REMARK   52  A    between atoms: _122  and  _124
REMARK   53  A    between atoms: _124  and  _125
REMARK   54  A    between atoms: _124  and  _127
REMARK   55  A    between atoms: _127  and  _128
REMARK   56  A    between atoms: _128  and  _129
REMARK   57  A    between atoms: _131  and  _133
REMARK   58  A    between atoms: _133  and  _134
REMARK   59  A    between atoms: _133  and  _136
REMARK   60  A    between atoms: _136  and  _137
REMARK   61  A    between atoms: _140  and  _142
REMARK   62  A    between atoms: _142  and  _143
REMARK   63  A    between atoms: _142  and  _145
REMARK   64  A    between atoms: _148  and  _150
REMARK   65  A    between atoms: _150  and  _151
REMARK   66  A    between atoms: _153  and  _155
REMARK   67  A    between atoms: _155  and  _156
REMARK   68  A    between atoms: _155  and  _158
REMARK   69  A    between atoms: _158  and  _159
REMARK   70  A    between atoms: _162  and  _164
REMARK   71  A    between atoms: _164  and  _165
REMARK   72  A    between atoms: _167  and  _169
REMARK   73  A    between atoms: _169  and  _170
REMARK   74  A    between atoms: _172  and  _174
REMARK   75  A    between atoms: _174  and  _175
REMARK   76  A    between atoms: _174  and  _177
REMARK   77  A    between atoms: _177  and  _178
REMARK   78  A    between atoms: _184  and  _186
REMARK   79  A    between atoms: _186  and  _187
REMARK   80  A    between atoms: _186  and  _189
REMARK   81  A    between atoms: _189  and  _190
REMARK   82  A    between atoms: _193  and  _195
REMARK   83  A    between atoms: _195  and  _196
REMARK   84  A    between atoms: _195  and  _198
REMARK   85  A    between atoms: _201  and  _203
REMARK   86  A    between atoms: _203  and  _204
REMARK   87  A    between atoms: _203  and  _206
REMARK   88  A    between atoms: _206  and  _207
REMARK   89  A    between atoms: _211  and  _212
REMARK   90  A    between atoms: _217  and  _219
REMARK   91  A    between atoms: _219  and  _220
REMARK   92  A    between atoms: _219  and  _222
REMARK   93  A    between atoms: _222  and  _223
REMARK   94  A    between atoms: _227  and  _228
REMARK   95  A    between atoms: _233  and  _235
REMARK   96  A    between atoms: _235  and  _236
REMARK   97  A    between atoms: _235  and  _238
REMARK   98  A    between atoms: _241  and  _243
REMARK   99  A    between atoms: _243  and  _244
REMARK  100  A    between atoms: _243  and  _246
REMARK  101  A    between atoms: _246  and  _247
REMARK  102  A    between atoms: _252  and  _254
REMARK  103  A    between atoms: _254  and  _255
REMARK  104  A    between atoms: _254  and  _257
REMARK  105  A    between atoms: _257  and  _258
REMARK  106  A    between atoms: _261  and  _263
REMARK  107  A    between atoms: _263  and  _264
REMARK  108  A    between atoms: _263  and  _266
REMARK  109  A    between atoms: _266  and  _267
REMARK  110  A    between atoms: _270  and  _272
REMARK  111  A    between atoms: _272  and  _273
REMARK  112  A    between atoms: _275  and  _277
REMARK  113  A    between atoms: _277  and  _278
REMARK  114  A    between atoms: _277  and  _280
REMARK  115  A    between atoms: _280  and  _281
REMARK  116  A    between atoms: _281  and  _282
REMARK  117  A    between atoms: _282  and  _283
REMARK  118  A    between atoms: _292  and  _294
REMARK  119  A    between atoms: _294  and  _295
REMARK  120  A    between atoms: _294  and  _297
REMARK  121  A    between atoms: _297  and  _298
REMARK  122  A    between atoms: _303  and  _305
REMARK  123  A    between atoms: _305  and  _306
REMARK  124  A    between atoms: _305  and  _308
REMARK  125  A    between atoms: _308  and  _309
REMARK  126  A    between atoms: _309  and  _310
REMARK  127  A    between atoms: _310  and  _311
REMARK  128  A    between atoms: _320  and  _322
REMARK  129  A    between atoms: _322  and  _323
REMARK  130  A    between atoms: _322  and  _325
REMARK  131  A    between atoms: _325  and  _326
REMARK  132  A    between atoms: _329  and  _331
REMARK  133  A    between atoms: _331  and  _332
REMARK  134  A    between atoms: _331  and  _334
REMARK  135  A    between atoms: _334  and  _335
REMARK  136  A    between atoms: _338  and  _340
REMARK  137  A    between atoms: _340  and  _341
REMARK  138  A    between atoms: _340  and  _343
REMARK  139  A    between atoms: _343  and  _344
REMARK  140  A    between atoms: _347  and  _349
REMARK  141  A    between atoms: _349  and  _350
REMARK  142  A    between atoms: _349  and  _352
REMARK  143  A    between atoms: _352  and  _353
REMARK  144  A    between atoms: _356  and  _358
REMARK  145  A    between atoms: _358  and  _359
REMARK  146  A    between atoms: _361  and  _363
REMARK  147  A    between atoms: _363  and  _364
REMARK  148  A    between atoms: _367  and  _369
REMARK  149  A    between atoms: _369  and  _370
REMARK  150  A    between atoms: _369  and  _372
REMARK  151  A    between atoms: _372  and  _373
REMARK  152  A    between atoms: _376  and  _378
REMARK  153  A    between atoms: _378  and  _379
REMARK  154  A    between atoms: _378  and  _381
REMARK  155  A    between atoms: _381  and  _382
REMARK  156  A    between atoms: _385  and  _387
REMARK  157  A    between atoms: _387  and  _388
REMARK  158  A    between atoms: _387  and  _390
REMARK  159  A    between atoms: _390  and  _391
REMARK  160  A    between atoms: _394  and  _396
REMARK  161  A    between atoms: _396  and  _397
REMARK  162  A    between atoms: _396  and  _399
REMARK  163  A    between atoms: _402  and  _404
REMARK  164  A    between atoms: _404  and  _405
REMARK  165  A    between atoms: _404  and  _407
REMARK  166  A    between atoms: _407  and  _408
REMARK  167  A    between atoms: _408  and  _409
REMARK  168  A    between atoms: _409  and  _410
REMARK  169  A    between atoms: _410  and  _411
REMARK  170  A    between atoms: _415  and  _417
REMARK  171  A    between atoms: _417  and  _418
REMARK  172  A    between atoms: _417  and  _420
REMARK  173  A    between atoms: _420  and  _421
REMARK  174  A    between atoms: _421  and  _422
REMARK  175  A    between atoms: _424  and  _426
REMARK  176  A    between atoms: _426  and  _427
REMARK  177  A    between atoms: _426  and  _429
REMARK  178  A    between atoms: _429  and  _430
REMARK  179  A    between atoms: _433  and  _435
REMARK  180  A    between atoms: _435  and  _436
REMARK  181  A    between atoms: _435  and  _438
REMARK  182  A    between atoms: _441  and  _443
REMARK  183  A    between atoms: _443  and  _444
REMARK  184  A    between atoms: _446  and  _448
REMARK  185  A    between atoms: _448  and  _449
REMARK  186  A    between atoms: _448  and  _451
REMARK  187  A    between atoms: _451  and  _452
REMARK  188  A    between atoms: _455  and  _457
REMARK  189  A    between atoms: _457  and  _458
REMARK  190  A    between atoms: _460  and  _462
REMARK  191  A    between atoms: _462  and  _463
REMARK  192  A    between atoms: _465  and  _467
REMARK  193  A    between atoms: _467  and  _468
REMARK  194  A    between atoms: _467  and  _470
REMARK  195  A    between atoms: _470  and  _471
REMARK  196  A    between atoms: _474  and  _476
REMARK  197  A    between atoms: _476  and  _477
REMARK  198  A    between atoms: _476  and  _479
REMARK  199  A    between atoms: _479  and  _480
REMARK  200  A    between atoms: _483  and  _485
REMARK  201  A    between atoms: _485  and  _486
REMARK  202  A    between atoms: _485  and  _488
REMARK  203  A    between atoms: _488  and  _489
REMARK  204  A    between atoms: _493  and  _494
REMARK  205  A    between atoms: _499  and  _501
REMARK  206  A    between atoms: _501  and  _502
REMARK  207  A    between atoms: _501  and  _504
REMARK  208  A    between atoms: _507  and  _509
REMARK  209  A    between atoms: _509  and  _510
REMARK  210  A    between atoms: _509  and  _512
REMARK  211  A    between atoms: _512  and  _513
REMARK  212  A    between atoms: _518  and  _520
REMARK  213  A    between atoms: _520  and  _521
REMARK  214  A    between atoms: _520  and  _523
REMARK  215  A    between atoms: _523  and  _524
REMARK  216  A    between atoms: _527  and  _529
REMARK  217  A    between atoms: _529  and  _530
REMARK  218  A    between atoms: _529  and  _532
REMARK  219  A    between atoms: _532  and  _533
REMARK  220  A    between atoms: _536  and  _538
REMARK  221  A    between atoms: _538  and  _539
REMARK  222  A    between atoms: _541  and  _543
REMARK  223  A    between atoms: _543  and  _544
REMARK  224  A    between atoms: _543  and  _546
REMARK  225  A    between atoms: _546  and  _547
REMARK  226  A    between atoms: _547  and  _548
REMARK  227  A    between atoms: _548  and  _549
REMARK  228  A    between atoms: _558  and  _560
REMARK  229  A    between atoms: _560  and  _561
REMARK  230  A    between atoms: _560  and  _563
REMARK  231  A    between atoms: _563  and  _564
REMARK                            x       y       z     vdW  Elec       q    Type
REMARK                         _______ _______ _______ _____ _____    ______ ____
ROOT
ATOM      1  O   HOH     1      -4.775  13.747 -15.908  0.00  0.00    +0.000 OA
ENDROOT
TORSDOF 0
REMARK  Name = ../refined-set-2016/3cyw/3cyw_pocket.pdb
REMARK  231 active torsions:
REMARK  status: ('A' for Active; 'I' for Inactive)
REMARK    1  A    between atoms: _1  and  _3
REMARK    2  A    between atoms: _3  and  _4
REMARK    3  A    between atoms: _3  and  _6
REMARK    4  A    between atoms: _6  and  _7
REMARK    5  A    between atoms: _7  and  _8
REMARK    6  A    between atoms: _8  and  _9
REMARK    7  A    between atoms: _18  and  _20
REMARK    8  A    between atoms: _20  and  _21
REMARK    9  A    between atoms: _20  and  _23
REMARK   10  A    between atoms: _23  and  _24
REMARK   11  A    between atoms: _27  and  _29
REMARK   12  A    between atoms: _29  and  _30
REMARK   13  A    between atoms: _29  and  _32
REMARK   14  A    between atoms: _32  and  _33
REMARK   15  A    between atoms: _36  and  _38
REMARK   16  A    between atoms: _38  and  _39
REMARK   17  A    between atoms: _38  and  _41
REMARK   18  A    between atoms: _41  and  _42
REMARK   19  A    between atoms: _45  and  _47
REMARK   20  A    between atoms: _47  and  _48
REMARK   21  A    between atoms: _47  and  _50
REMARK   22  A    between atoms: _50  and  _51
REMARK   23  A    between atoms: _54  and  _56
REMARK   24  A    between atoms: _56  and  _57
REMARK   25  A    between atoms: _59  and  _61
REMARK   26  A    between atoms: _61  and  _62
REMARK   27  A    between atoms: _65  and  _67
REMARK   28  A    between atoms: _67  and  _68
REMARK   29  A    between atoms: _67  and  _70
REMARK   30  A    between atoms: _70  and  _71
REMARK   31  A    between atoms: _74  and  _76
REMARK   32  A    between atoms: _76  and  _77
REMARK   33  A    between atoms: _76  and  _79
REMARK   34  A    between atoms: _79  and  _80
REMARK   35  A    between atoms: _83  and  _85
REMARK   36  A    between atoms: _85  and  _86
REMARK   37  A    between atoms: _85  and  _88
REMARK   38  A    between atoms: _88  and  _89
REMARK   39  A    between atoms: _92  and  _94
REMARK   40  A    between atoms: _94  and  _95
REMARK   41  A    between atoms: _94  and  _97
REMARK   42  A    between atoms: _100  and  _102
REMARK   43  A    between atoms: _102  and  _103
REMARK   44  A    between atoms: _102  and  _105
REMARK   45  A    between atoms: _105  and  _106
REMARK   46  A    between atoms: _109  and  _111
REMARK   47  A    between atoms: _111  and  _112
REMARK   48  A    between atoms: _111  and  _114
REMARK   49  A    between atoms: _115  and  _116
REMARK   50  A    between atoms: _116  and  _117
REMARK   51  A    between atoms: _117  and  _118
REMARK   52  A    between atoms: _122  and  _124
REMARK   53  A    between atoms: _124  and  _125
REMARK   54  A    between atoms: _124  and  _127
REMARK   55  A    between atoms: _127  and  _128
REMARK   56  A    between atoms: _128  and  _129
REMARK   57  A    between atoms: _131  and  _133
REMARK   58  A    between atoms: _133  and  _134
REMARK   59  A    between atoms: _133  and  _136
REMARK   60  A    between atoms: _136  and  _137
REMARK   61  A    between atoms: _140  and  _142
REMARK   62  A    between atoms: _142  and  _143
REMARK   63  A    between atoms: _142  and  _145
REMARK   64  A    between atoms: _148  and  _150
REMARK   65  A    between atoms: _150  and  _151
REMARK   66  A    between atoms: _153  and  _155
REMARK   67  A    between atoms: _155  and  _156
REMARK   68  A    between atoms: _155  and  _158
REMARK   69  A    between atoms: _158  and  _159
REMARK   70  A    between atoms: _162  and  _164
REMARK   71  A    between atoms: _164  and  _165
REMARK   72  A    between atoms: _167  and  _169
REMARK   73  A    between atoms: _169  and  _170
REMARK   74  A    between atoms: _172  and  _174
REMARK   75  A    between atoms: _174  and  _175
REMARK   76  A    between atoms: _174  and  _177
REMARK   77  A    between atoms: _177  and  _178
REMARK   78  A    between atoms: _184  and  _186
REMARK   79  A    between atoms: _186  and  _187
REMARK   80  A    between atoms: _186  and  _189
REMARK   81  A    between atoms: _189  and  _190
REMARK   82  A    between atoms: _193  and  _195
REMARK   83  A    between atoms: _195  and  _196
REMARK   84  A    between atoms: _195  and  _198
REMARK   85  A    between atoms: _201  and  _203
REMARK   86  A    between atoms: _203  and  _204
REMARK   87  A    between atoms: _203  and  _206
REMARK   88  A    between atoms: _206  and  _207
REMARK   89  A    between atoms: _211  and  _212
REMARK   90  A    between atoms: _217  and  _219
REMARK   91  A    between atoms: _219  and  _220
REMARK   92  A    between atoms: _219  and  _222
REMARK   93  A    between atoms: _222  and  _223
REMARK   94  A    between atoms: _227  and  _228
REMARK   95  A    between atoms: _233  and  _235
REMARK   96  A    between atoms: _235  and  _236
REMARK   97  A    between atoms: _235  and  _238
REMARK   98  A    between atoms: _241  and  _243
REMARK   99  A    between atoms: _243  and  _244
REMARK  100  A    between atoms: _243  and  _246
REMARK  101  A    between atoms: _246  and  _247
REMARK  102  A    between atoms: _252  and  _254
REMARK  103  A    between atoms: _254  and  _255
REMARK  104  A    between atoms: _254  and  _257
REMARK  105  A    between atoms: _257  and  _258
REMARK  106  A    between atoms: _261  and  _263
REMARK  107  A    between atoms: _263  and  _264
REMARK  108  A    between atoms: _263  and  _266
REMARK  109  A    between atoms: _266  and  _267
REMARK  110  A    between atoms: _270  and  _272
REMARK  111  A    between atoms: _272  and  _273
REMARK  112  A    between atoms: _275  and  _277
REMARK  113  A    between atoms: _277  and  _278
REMARK  114  A    between atoms: _277  and  _280
REMARK  115  A    between atoms: _280  and  _281
REMARK  116  A    between atoms: _281  and  _282
REMARK  117  A    between atoms: _282  and  _283
REMARK  118  A    between atoms: _292  and  _294
REMARK  119  A    between atoms: _294  and  _295
REMARK  120  A    between atoms: _294  and  _297
REMARK  121  A    between atoms: _297  and  _298
REMARK  122  A    between atoms: _303  and  _305
REMARK  123  A    between atoms: _305  and  _306
REMARK  124  A    between atoms: _305  and  _308
REMARK  125  A    between atoms: _308  and  _309
REMARK  126  A    between atoms: _309  and  _310
REMARK  127  A    between atoms: _310  and  _311
REMARK  128  A    between atoms: _320  and  _322
REMARK  129  A    between atoms: _322  and  _323
REMARK  130  A    between atoms: _322  and  _325
REMARK  131  A    between atoms: _325  and  _326
REMARK  132  A    between atoms: _329  and  _331
REMARK  133  A    between atoms: _331  and  _332
REMARK  134  A    between atoms: _331  and  _334
REMARK  135  A    between atoms: _334  and  _335
REMARK  136  A    between atoms: _338  and  _340
REMARK  137  A    between atoms: _340  and  _341
REMARK  138  A    between atoms: _340  and  _343
REMARK  139  A    between atoms: _343  and  _344
REMARK  140  A    between atoms: _347  and  _349
REMARK  141  A    between atoms: _349  and  _350
REMARK  142  A    between atoms: _349  and  _352
REMARK  143  A    between atoms: _352  and  _353
REMARK  144  A    between atoms: _356  and  _358
REMARK  145  A    between atoms: _358  and  _359
REMARK  146  A    between atoms: _361  and  _363
REMARK  147  A    between atoms: _363  and  _364
REMARK  148  A    between atoms: _367  and  _369
REMARK  149  A    between atoms: _369  and  _370
REMARK  150  A    between atoms: _369  and  _372
REMARK  151  A    between atoms: _372  and  _373
REMARK  152  A    between atoms: _376  and  _378
REMARK  153  A    between atoms: _378  and  _379
REMARK  154  A    between atoms: _378  and  _381
REMARK  155  A    between atoms: _381  and  _382
REMARK  156  A    between atoms: _385  and  _387
REMARK  157  A    between atoms: _387  and  _388
REMARK  158  A    between atoms: _387  and  _390
REMARK  159  A    between atoms: _390  and  _391
REMARK  160  A    between atoms: _394  and  _396
REMARK  161  A    between atoms: _396  and  _397
REMARK  162  A    between atoms: _396  and  _399
REMARK  163  A    between atoms: _402  and  _404
REMARK  164  A    between atoms: _404  and  _405
REMARK  165  A    between atoms: _404  and  _407
REMARK  166  A    between atoms: _407  and  _408
REMARK  167  A    between atoms: _408  and  _409
REMARK  168  A    between atoms: _409  and  _410
REMARK  169  A    between atoms: _410  and  _411
REMARK  170  A    between atoms: _415  and  _417
REMARK  171  A    between atoms: _417  and  _418
REMARK  172  A    between atoms: _417  and  _420
REMARK  173  A    between atoms: _420  and  _421
REMARK  174  A    between atoms: _421  and  _422
REMARK  175  A    between atoms: _424  and  _426
REMARK  176  A    between atoms: _426  and  _427
REMARK  177  A    between atoms: _426  and  _429
REMARK  178  A    between atoms: _429  and  _430
REMARK  179  A    between atoms: _433  and  _435
REMARK  180  A    between atoms: _435  and  _436
REMARK  181  A    between atoms: _435  and  _438
REMARK  182  A    between atoms: _441  and  _443
REMARK  183  A    between atoms: _443  and  _444
REMARK  184  A    between atoms: _446  and  _448
REMARK  185  A    between atoms: _448  and  _449
REMARK  186  A    between atoms: _448  and  _451
REMARK  187  A    between atoms: _451  and  _452
REMARK  188  A    between atoms: _455  and  _457
REMARK  189  A    between atoms: _457  and  _458
REMARK  190  A    between atoms: _460  and  _462
REMARK  191  A    between atoms: _462  and  _463
REMARK  192  A    between atoms: _465  and  _467
REMARK  193  A    between atoms: _467  and  _468
REMARK  194  A    between atoms: _467  and  _470
REMARK  195  A    between atoms: _470  and  _471
REMARK  196  A    between atoms: _474  and  _476
REMARK  197  A    between atoms: _476  and  _477
REMARK  198  A    between atoms: _476  and  _479
REMARK  199  A    between atoms: _479  and  _480
REMARK  200  A    between atoms: _483  and  _485
REMARK  201  A    between atoms: _485  and  _486
REMARK  202  A    between atoms: _485  and  _488
REMARK  203  A    between atoms: _488  and  _489
REMARK  204  A    between atoms: _493  and  _494
REMARK  205  A    between atoms: _499  and  _501
REMARK  206  A    between atoms: _501  and  _502
REMARK  207  A    between atoms: _501  and  _504
REMARK  208  A    between atoms: _507  and  _509
REMARK  209  A    between atoms: _509  and  _510
REMARK  210  A    between atoms: _509  and  _512
REMARK  211  A    between atoms: _512  and  _513
REMARK  212  A    between atoms: _518  and  _520
REMARK  213  A    between atoms: _520  and  _521
REMARK  214  A    between atoms: _520  and  _523
REMARK  215  A    between atoms: _523  and  _524
REMARK  216  A    between atoms: _527  and  _529
REMARK  217  A    between atoms: _529  and  _530
REMARK  218  A    between atoms: _529  and  _532
REMARK  219  A    between atoms: _532  and  _533
REMARK  220  A    between atoms: _536  and  _538
REMARK  221  A    between atoms: _538  and  _539
REMARK  222  A    between atoms: _541  and  _543
REMARK  223  A    between atoms: _543  and  _544
REMARK  224  A    between atoms: _543  and  _546
REMARK  225  A    between atoms: _546  and  _547
REMARK  226  A    between atoms: _547  and  _548
REMARK  227  A    between atoms: _548  and  _549
REMARK  228  A    between atoms: _558  and  _560
REMARK  229  A    between atoms: _560  and  _561
REMARK  230  A    between atoms: _560  and  _563
REMARK  231  A    between atoms: _563  and  _564
REMARK                            x       y       z     vdW  Elec       q    Type
REMARK                         _______ _______ _______ _____ _____    ______ ____
ROOT
ATOM      1  O   HOH     1      -3.505   9.360 -11.256  0.00  0.00    +0.000 OA
ENDROOT
TORSDOF 0
REMARK  Name = ../refined-set-2016/3cyw/3cyw_pocket.pdb
REMARK  231 active torsions:
REMARK  status: ('A' for Active; 'I' for Inactive)
REMARK    1  A    between atoms: _1  and  _3
REMARK    2  A    between atoms: _3  and  _4
REMARK    3  A    between atoms: _3  and  _6
REMARK    4  A    between atoms: _6  and  _7
REMARK    5  A    between atoms: _7  and  _8
REMARK    6  A    between atoms: _8  and  _9
REMARK    7  A    between atoms: _18  and  _20
REMARK    8  A    between atoms: _20  and  _21
REMARK    9  A    between atoms: _20  and  _23
REMARK   10  A    between atoms: _23  and  _24
REMARK   11  A    between atoms: _27  and  _29
REMARK   12  A    between atoms: _29  and  _30
REMARK   13  A    between atoms: _29  and  _32
REMARK   14  A    between atoms: _32  and  _33
REMARK   15  A    between atoms: _36  and  _38
REMARK   16  A    between atoms: _38  and  _39
REMARK   17  A    between atoms: _38  and  _41
REMARK   18  A    between atoms: _41  and  _42
REMARK   19  A    between atoms: _45  and  _47
REMARK   20  A    between atoms: _47  and  _48
REMARK   21  A    between atoms: _47  and  _50
REMARK   22  A    between atoms: _50  and  _51
REMARK   23  A    between atoms: _54  and  _56
REMARK   24  A    between atoms: _56  and  _57
REMARK   25  A    between atoms: _59  and  _61
REMARK   26  A    between atoms: _61  and  _62
REMARK   27  A    between atoms: _65  and  _67
REMARK   28  A    between atoms: _67  and  _68
REMARK   29  A    between atoms: _67  and  _70
REMARK   30  A    between atoms: _70  and  _71
REMARK   31  A    between atoms: _74  and  _76
REMARK   32  A    between atoms: _76  and  _77
REMARK   33  A    between atoms: _76  and  _79
REMARK   34  A    between atoms: _79  and  _80
REMARK   35  A    between atoms: _83  and  _85
REMARK   36  A    between atoms: _85  and  _86
REMARK   37  A    between atoms: _85  and  _88
REMARK   38  A    between atoms: _88  and  _89
REMARK   39  A    between atoms: _92  and  _94
REMARK   40  A    between atoms: _94  and  _95
REMARK   41  A    between atoms: _94  and  _97
REMARK   42  A    between atoms: _100  and  _102
REMARK   43  A    between atoms: _102  and  _103
REMARK   44  A    between atoms: _102  and  _105
REMARK   45  A    between atoms: _105  and  _106
REMARK   46  A    between atoms: _109  and  _111
REMARK   47  A    between atoms: _111  and  _112
REMARK   48  A    between atoms: _111  and  _114
REMARK   49  A    between atoms: _115  and  _116
REMARK   50  A    between atoms: _116  and  _117
REMARK   51  A    between atoms: _117  and  _118
REMARK   52  A    between atoms: _122  and  _124
REMARK   53  A    between atoms: _124  and  _125
REMARK   54  A    between atoms: _124  and  _127
REMARK   55  A    between atoms: _127  and  _128
REMARK   56  A    between atoms: _128  and  _129
REMARK   57  A    between atoms: _131  and  _133
REMARK   58  A    between atoms: _133  and  _134
REMARK   59  A    between atoms: _133  and  _136
REMARK   60  A    between atoms: _136  and  _137
REMARK   61  A    between atoms: _140  and  _142
REMARK   62  A    between atoms: _142  and  _143
REMARK   63  A    between atoms: _142  and  _145
REMARK   64  A    between atoms: _148  and  _150
REMARK   65  A    between atoms: _150  and  _151
REMARK   66  A    between atoms: _153  and  _155
REMARK   67  A    between atoms: _155  and  _156
REMARK   68  A    between atoms: _155  and  _158
REMARK   69  A    between atoms: _158  and  _159
REMARK   70  A    between atoms: _162  and  _164
REMARK   71  A    between atoms: _164  and  _165
REMARK   72  A    between atoms: _167  and  _169
REMARK   73  A    between atoms: _169  and  _170
REMARK   74  A    between atoms: _172  and  _174
REMARK   75  A    between atoms: _174  and  _175
REMARK   76  A    between atoms: _174  and  _177
REMARK   77  A    between atoms: _177  and  _178
REMARK   78  A    between atoms: _184  and  _186
REMARK   79  A    between atoms: _186  and  _187
REMARK   80  A    between atoms: _186  and  _189
REMARK   81  A    between atoms: _189  and  _190
REMARK   82  A    between atoms: _193  and  _195
REMARK   83  A    between atoms: _195  and  _196
REMARK   84  A    between atoms: _195  and  _198
REMARK   85  A    between atoms: _201  and  _203
REMARK   86  A    between atoms: _203  and  _204
REMARK   87  A    between atoms: _203  and  _206
REMARK   88  A    between atoms: _206  and  _207
REMARK   89  A    between atoms: _211  and  _212
REMARK   90  A    between atoms: _217  and  _219
REMARK   91  A    between atoms: _219  and  _220
REMARK   92  A    between atoms: _219  and  _222
REMARK   93  A    between atoms: _222  and  _223
REMARK   94  A    between atoms: _227  and  _228
REMARK   95  A    between atoms: _233  and  _235
REMARK   96  A    between atoms: _235  and  _236
REMARK   97  A    between atoms: _235  and  _238
REMARK   98  A    between atoms: _241  and  _243
REMARK   99  A    between atoms: _243  and  _244
REMARK  100  A    between atoms: _243  and  _246
REMARK  101  A    between atoms: _246  and  _247
REMARK  102  A    between atoms: _252  and  _254
REMARK  103  A    between atoms: _254  and  _255
REMARK  104  A    between atoms: _254  and  _257
REMARK  105  A    between atoms: _257  and  _258
REMARK  106  A    between atoms: _261  and  _263
REMARK  107  A    between atoms: _263  and  _264
REMARK  108  A    between atoms: _263  and  _266
REMARK  109  A    between atoms: _266  and  _267
REMARK  110  A    between atoms: _270  and  _272
REMARK  111  A    between atoms: _272  and  _273
REMARK  112  A    between atoms: _275  and  _277
REMARK  113  A    between atoms: _277  and  _278
REMARK  114  A    between atoms: _277  and  _280
REMARK  115  A    between atoms: _280  and  _281
REMARK  116  A    between atoms: _281  and  _282
REMARK  117  A    between atoms: _282  and  _283
REMARK  118  A    between atoms: _292  and  _294
REMARK  119  A    between atoms: _294  and  _295
REMARK  120  A    between atoms: _294  and  _297
REMARK  121  A    between atoms: _297  and  _298
REMARK  122  A    between atoms: _303  and  _305
REMARK  123  A    between atoms: _305  and  _306
REMARK  124  A    between atoms: _305  and  _308
REMARK  125  A    between atoms: _308  and  _309
REMARK  126  A    between atoms: _309  and  _310
REMARK  127  A    between atoms: _310  and  _311
REMARK  128  A    between atoms: _320  and  _322
REMARK  129  A    between atoms: _322  and  _323
REMARK  130  A    between atoms: _322  and  _325
REMARK  131  A    between atoms: _325  and  _326
REMARK  132  A    between atoms: _329  and  _331
REMARK  133  A    between atoms: _331  and  _332
REMARK  134  A    between atoms: _331  and  _334
REMARK  135  A    between atoms: _334  and  _335
REMARK  136  A    between atoms: _338  and  _340
REMARK  137  A    between atoms: _340  and  _341
REMARK  138  A    between atoms: _340  and  _343
REMARK  139  A    between atoms: _343  and  _344
REMARK  140  A    between atoms: _347  and  _349
REMARK  141  A    between atoms: _349  and  _350
REMARK  142  A    between atoms: _349  and  _352
REMARK  143  A    between atoms: _352  and  _353
REMARK  144  A    between atoms: _356  and  _358
REMARK  145  A    between atoms: _358  and  _359
REMARK  146  A    between atoms: _361  and  _363
REMARK  147  A    between atoms: _363  and  _364
REMARK  148  A    between atoms: _367  and  _369
REMARK  149  A    between atoms: _369  and  _370
REMARK  150  A    between atoms: _369  and  _372
REMARK  151  A    between atoms: _372  and  _373
REMARK  152  A    between atoms: _376  and  _378
REMARK  153  A    between atoms: _378  and  _379
REMARK  154  A    between atoms: _378  and  _381
REMARK  155  A    between atoms: _381  and  _382
REMARK  156  A    between atoms: _385  and  _387
REMARK  157  A    between atoms: _387  and  _388
REMARK  158  A    between atoms: _387  and  _390
REMARK  159  A    between atoms: _390  and  _391
REMARK  160  A    between atoms: _394  and  _396
REMARK  161  A    between atoms: _396  and  _397
REMARK  162  A    between atoms: _396  and  _399
REMARK  163  A    between atoms: _402  and  _404
REMARK  164  A    between atoms: _404  and  _405
REMARK  165  A    between atoms: _404  and  _407
REMARK  166  A    between atoms: _407  and  _408
REMARK  167  A    between atoms: _408  and  _409
REMARK  168  A    between atoms: _409  and  _410
REMARK  169  A    between atoms: _410  and  _411
REMARK  170  A    between atoms: _415  and  _417
REMARK  171  A    between atoms: _417  and  _418
REMARK  172  A    between atoms: _417  and  _420
REMARK  173  A    between atoms: _420  and  _421
REMARK  174  A    between atoms: _421  and  _422
REMARK  175  A    between atoms: _424  and  _426
REMARK  176  A    between atoms: _426  and  _427
REMARK  177  A    between atoms: _426  and  _429
REMARK  178  A    between atoms: _429  and  _430
REMARK  179  A    between atoms: _433  and  _435
REMARK  180  A    between atoms: _435  and  _436
REMARK  181  A    between atoms: _435  and  _438
REMARK  182  A    between atoms: _441  and  _443
REMARK  183  A    between atoms: _443  and  _444
REMARK  184  A    between atoms: _446  and  _448
REMARK  185  A    between atoms: _448  and  _449
REMARK  186  A    between atoms: _448  and  _451
REMARK  187  A    between atoms: _451  and  _452
REMARK  188  A    between atoms: _455  and  _457
REMARK  189  A    between atoms: _457  and  _458
REMARK  190  A    between atoms: _460  and  _462
REMARK  191  A    between atoms: _462  and  _463
REMARK  192  A    between atoms: _465  and  _467
REMARK  193  A    between atoms: _467  and  _468
REMARK  194  A    between atoms: _467  and  _470
REMARK  195  A    between atoms: _470  and  _471
REMARK  196  A    between atoms: _474  and  _476
REMARK  197  A    between atoms: _476  and  _477
REMARK  198  A    between atoms: _476  and  _479
REMARK  199  A    between atoms: _479  and  _480
REMARK  200  A    between atoms: _483  and  _485
REMARK  201  A    between atoms: _485  and  _486
REMARK  202  A    between atoms: _485  and  _488
REMARK  203  A    between atoms: _488  and  _489
REMARK  204  A    between atoms: _493  and  _494
REMARK  205  A    between atoms: _499  and  _501
REMARK  206  A    between atoms: _501  and  _502
REMARK  207  A    between atoms: _501  and  _504
REMARK  208  A    between atoms: _507  and  _509
REMARK  209  A    between atoms: _509  and  _510
REMARK  210  A    between atoms: _509  and  _512
REMARK  211  A    between atoms: _512  and  _513
REMARK  212  A    between atoms: _518  and  _520
REMARK  213  A    between atoms: _520  and  _521
REMARK  214  A    between atoms: _520  and  _523
REMARK  215  A    between atoms: _523  and  _524
REMARK  216  A    between atoms: _527  and  _529
REMARK  217  A    between atoms: _529  and  _530
REMARK  218  A    between atoms: _529  and  _532
REMARK  219  A    between atoms: _532  and  _533
REMARK  220  A    between atoms: _536  and  _538
REMARK  221  A    between atoms: _538  and  _539
REMARK  222  A    between atoms: _541  and  _543
REMARK  223  A    between atoms: _543  and  _544
REMARK  224  A    between atoms: _543  and  _546
REMARK  225  A    between atoms: _546  and  _547
REMARK  226  A    between atoms: _547  and  _548
REMARK  227  A    between atoms: _548  and  _549
REMARK  228  A    between atoms: _558  and  _560
REMARK  229  A    between atoms: _560  and  _561
REMARK  230  A    between atoms: _560  and  _563
REMARK  231  A    between atoms: _563  and  _564
REMARK                            x       y       z     vdW  Elec       q    Type
REMARK                         _______ _______ _______ _____ _____    ______ ____
ROOT
ATOM      1  O   HOH     1      -5.360  17.059 -20.834  0.00  0.00    +0.000 OA
ENDROOT
TORSDOF 0
REMARK  Name = ../refined-set-2016/3cyw/3cyw_pocket.pdb
REMARK  231 active torsions:
REMARK  status: ('A' for Active; 'I' for Inactive)
REMARK    1  A    between atoms: _1  and  _3
REMARK    2  A    between atoms: _3  and  _4
REMARK    3  A    between atoms: _3  and  _6
REMARK    4  A    between atoms: _6  and  _7
REMARK    5  A    between atoms: _7  and  _8
REMARK    6  A    between atoms: _8  and  _9
REMARK    7  A    between atoms: _18  and  _20
REMARK    8  A    between atoms: _20  and  _21
REMARK    9  A    between atoms: _20  and  _23
REMARK   10  A    between atoms: _23  and  _24
REMARK   11  A    between atoms: _27  and  _29
REMARK   12  A    between atoms: _29  and  _30
REMARK   13  A    between atoms: _29  and  _32
REMARK   14  A    between atoms: _32  and  _33
REMARK   15  A    between atoms: _36  and  _38
REMARK   16  A    between atoms: _38  and  _39
REMARK   17  A    between atoms: _38  and  _41
REMARK   18  A    between atoms: _41  and  _42
REMARK   19  A    between atoms: _45  and  _47
REMARK   20  A    between atoms: _47  and  _48
REMARK   21  A    between atoms: _47  and  _50
REMARK   22  A    between atoms: _50  and  _51
REMARK   23  A    between atoms: _54  and  _56
REMARK   24  A    between atoms: _56  and  _57
REMARK   25  A    between atoms: _59  and  _61
REMARK   26  A    between atoms: _61  and  _62
REMARK   27  A    between atoms: _65  and  _67
REMARK   28  A    between atoms: _67  and  _68
REMARK   29  A    between atoms: _67  and  _70
REMARK   30  A    between atoms: _70  and  _71
REMARK   31  A    between atoms: _74  and  _76
REMARK   32  A    between atoms: _76  and  _77
REMARK   33  A    between atoms: _76  and  _79
REMARK   34  A    between atoms: _79  and  _80
REMARK   35  A    between atoms: _83  and  _85
REMARK   36  A    between atoms: _85  and  _86
REMARK   37  A    between atoms: _85  and  _88
REMARK   38  A    between atoms: _88  and  _89
REMARK   39  A    between atoms: _92  and  _94
REMARK   40  A    between atoms: _94  and  _95
REMARK   41  A    between atoms: _94  and  _97
REMARK   42  A    between atoms: _100  and  _102
REMARK   43  A    between atoms: _102  and  _103
REMARK   44  A    between atoms: _102  and  _105
REMARK   45  A    between atoms: _105  and  _106
REMARK   46  A    between atoms: _109  and  _111
REMARK   47  A    between atoms: _111  and  _112
REMARK   48  A    between atoms: _111  and  _114
REMARK   49  A    between atoms: _115  and  _116
REMARK   50  A    between atoms: _116  and  _117
REMARK   51  A    between atoms: _117  and  _118
REMARK   52  A    between atoms: _122  and  _124
REMARK   53  A    between atoms: _124  and  _125
REMARK   54  A    between atoms: _124  and  _127
REMARK   55  A    between atoms: _127  and  _128
REMARK   56  A    between atoms: _128  and  _129
REMARK   57  A    between atoms: _131  and  _133
REMARK   58  A    between atoms: _133  and  _134
REMARK   59  A    between atoms: _133  and  _136
REMARK   60  A    between atoms: _136  and  _137
REMARK   61  A    between atoms: _140  and  _142
REMARK   62  A    between atoms: _142  and  _143
REMARK   63  A    between atoms: _142  and  _145
REMARK   64  A    between atoms: _148  and  _150
REMARK   65  A    between atoms: _150  and  _151
REMARK   66  A    between atoms: _153  and  _155
REMARK   67  A    between atoms: _155  and  _156
REMARK   68  A    between atoms: _155  and  _158
REMARK   69  A    between atoms: _158  and  _159
REMARK   70  A    between atoms: _162  and  _164
REMARK   71  A    between atoms: _164  and  _165
REMARK   72  A    between atoms: _167  and  _169
REMARK   73  A    between atoms: _169  and  _170
REMARK   74  A    between atoms: _172  and  _174
REMARK   75  A    between atoms: _174  and  _175
REMARK   76  A    between atoms: _174  and  _177
REMARK   77  A    between atoms: _177  and  _178
REMARK   78  A    between atoms: _184  and  _186
REMARK   79  A    between atoms: _186  and  _187
REMARK   80  A    between atoms: _186  and  _189
REMARK   81  A    between atoms: _189  and  _190
REMARK   82  A    between atoms: _193  and  _195
REMARK   83  A    between atoms: _195  and  _196
REMARK   84  A    between atoms: _195  and  _198
REMARK   85  A    between atoms: _201  and  _203
REMARK   86  A    between atoms: _203  and  _204
REMARK   87  A    between atoms: _203  and  _206
REMARK   88  A    between atoms: _206  and  _207
REMARK   89  A    between atoms: _211  and  _212
REMARK   90  A    between atoms: _217  and  _219
REMARK   91  A    between atoms: _219  and  _220
REMARK   92  A    between atoms: _219  and  _222
REMARK   93  A    between atoms: _222  and  _223
REMARK   94  A    between atoms: _227  and  _228
REMARK   95  A    between atoms: _233  and  _235
REMARK   96  A    between atoms: _235  and  _236
REMARK   97  A    between atoms: _235  and  _238
REMARK   98  A    between atoms: _241  and  _243
REMARK   99  A    between atoms: _243  and  _244
REMARK  100  A    between atoms: _243  and  _246
REMARK  101  A    between atoms: _246  and  _247
REMARK  102  A    between atoms: _252  and  _254
REMARK  103  A    between atoms: _254  and  _255
REMARK  104  A    between atoms: _254  and  _257
REMARK  105  A    between atoms: _257  and  _258
REMARK  106  A    between atoms: _261  and  _263
REMARK  107  A    between atoms: _263  and  _264
REMARK  108  A    between atoms: _263  and  _266
REMARK  109  A    between atoms: _266  and  _267
REMARK  110  A    between atoms: _270  and  _272
REMARK  111  A    between atoms: _272  and  _273
REMARK  112  A    between atoms: _275  and  _277
REMARK  113  A    between atoms: _277  and  _278
REMARK  114  A    between atoms: _277  and  _280
REMARK  115  A    between atoms: _280  and  _281
REMARK  116  A    between atoms: _281  and  _282
REMARK  117  A    between atoms: _282  and  _283
REMARK  118  A    between atoms: _292  and  _294
REMARK  119  A    between atoms: _294  and  _295
REMARK  120  A    between atoms: _294  and  _297
REMARK  121  A    between atoms: _297  and  _298
REMARK  122  A    between atoms: _303  and  _305
REMARK  123  A    between atoms: _305  and  _306
REMARK  124  A    between atoms: _305  and  _308
REMARK  125  A    between atoms: _308  and  _309
REMARK  126  A    between atoms: _309  and  _310
REMARK  127  A    between atoms: _310  and  _311
REMARK  128  A    between atoms: _320  and  _322
REMARK  129  A    between atoms: _322  and  _323
REMARK  130  A    between atoms: _322  and  _325
REMARK  131  A    between atoms: _325  and  _326
REMARK  132  A    between atoms: _329  and  _331
REMARK  133  A    between atoms: _331  and  _332
REMARK  134  A    between atoms: _331  and  _334
REMARK  135  A    between atoms: _334  and  _335
REMARK  136  A    between atoms: _338  and  _340
REMARK  137  A    between atoms: _340  and  _341
REMARK  138  A    between atoms: _340  and  _343
REMARK  139  A    between atoms: _343  and  _344
REMARK  140  A    between atoms: _347  and  _349
REMARK  141  A    between atoms: _349  and  _350
REMARK  142  A    between atoms: _349  and  _352
REMARK  143  A    between atoms: _352  and  _353
REMARK  144  A    between atoms: _356  and  _358
REMARK  145  A    between atoms: _358  and  _359
REMARK  146  A    between atoms: _361  and  _363
REMARK  147  A    between atoms: _363  and  _364
REMARK  148  A    between atoms: _367  and  _369
REMARK  149  A    between atoms: _369  and  _370
REMARK  150  A    between atoms: _369  and  _372
REMARK  151  A    between atoms: _372  and  _373
REMARK  152  A    between atoms: _376  and  _378
REMARK  153  A    between atoms: _378  and  _379
REMARK  154  A    between atoms: _378  and  _381
REMARK  155  A    between atoms: _381  and  _382
REMARK  156  A    between atoms: _385  and  _387
REMARK  157  A    between atoms: _387  and  _388
REMARK  158  A    between atoms: _387  and  _390
REMARK  159  A    between atoms: _390  and  _391
REMARK  160  A    between atoms: _394  and  _396
REMARK  161  A    between atoms: _396  and  _397
REMARK  162  A    between atoms: _396  and  _399
REMARK  163  A    between atoms: _402  and  _404
REMARK  164  A    between atoms: _404  and  _405
REMARK  165  A    between atoms: _404  and  _407
REMARK  166  A    between atoms: _407  and  _408
REMARK  167  A    between atoms: _408  and  _409
REMARK  168  A    between atoms: _409  and  _410
REMARK  169  A    between atoms: _410  and  _411
REMARK  170  A    between atoms: _415  and  _417
REMARK  171  A    between atoms: _417  and  _418
REMARK  172  A    between atoms: _417  and  _420
REMARK  173  A    between atoms: _420  and  _421
REMARK  174  A    between atoms: _421  and  _422
REMARK  175  A    between atoms: _424  and  _426
REMARK  176  A    between atoms: _426  and  _427
REMARK  177  A    between atoms: _426  and  _429
REMARK  178  A    between atoms: _429  and  _430
REMARK  179  A    between atoms: _433  and  _435
REMARK  180  A    between atoms: _435  and  _436
REMARK  181  A    between atoms: _435  and  _438
REMARK  182  A    between atoms: _441  and  _443
REMARK  183  A    between atoms: _443  and  _444
REMARK  184  A    between atoms: _446  and  _448
REMARK  185  A    between atoms: _448  and  _449
REMARK  186  A    between atoms: _448  and  _451
REMARK  187  A    between atoms: _451  and  _452
REMARK  188  A    between atoms: _455  and  _457
REMARK  189  A    between atoms: _457  and  _458
REMARK  190  A    between atoms: _460  and  _462
REMARK  191  A    between atoms: _462  and  _463
REMARK  192  A    between atoms: _465  and  _467
REMARK  193  A    between atoms: _467  and  _468
REMARK  194  A    between atoms: _467  and  _470
REMARK  195  A    between atoms: _470  and  _471
REMARK  196  A    between atoms: _474  and  _476
REMARK  197  A    between atoms: _476  and  _477
REMARK  198  A    between atoms: _476  and  _479
REMARK  199  A    between atoms: _479  and  _480
REMARK  200  A    between atoms: _483  and  _485
REMARK  201  A    between atoms: _485  and  _486
REMARK  202  A    between atoms: _485  and  _488
REMARK  203  A    between atoms: _488  and  _489
REMARK  204  A    between atoms: _493  and  _494
REMARK  205  A    between atoms: _499  and  _501
REMARK  206  A    between atoms: _501  and  _502
REMARK  207  A    between atoms: _501  and  _504
REMARK  208  A    between atoms: _507  and  _509
REMARK  209  A    between atoms: _509  and  _510
REMARK  210  A    between atoms: _509  and  _512
REMARK  211  A    between atoms: _512  and  _513
REMARK  212  A    between atoms: _518  and  _520
REMARK  213  A    between atoms: _520  and  _521
REMARK  214  A    between atoms: _520  and  _523
REMARK  215  A    between atoms: _523  and  _524
REMARK  216  A    between atoms: _527  and  _529
REMARK  217  A    between atoms: _529  and  _530
REMARK  218  A    between atoms: _529  and  _532
REMARK  219  A    between atoms: _532  and  _533
REMARK  220  A    between atoms: _536  and  _538
REMARK  221  A    between atoms: _538  and  _539
REMARK  222  A    between atoms: _541  and  _543
REMARK  223  A    between atoms: _543  and  _544
REMARK  224  A    between atoms: _543  and  _546
REMARK  225  A    between atoms: _546  and  _547
REMARK  226  A    between atoms: _547  and  _548
REMARK  227  A    between atoms: _548  and  _549
REMARK  228  A    between atoms: _558  and  _560
REMARK  229  A    between atoms: _560  and  _561
REMARK  230  A    between atoms: _560  and  _563
REMARK  231  A    between atoms: _563  and  _564
REMARK                            x       y       z     vdW  Elec       q    Type
REMARK                         _______ _______ _______ _____ _____    ______ ____
ROOT
ATOM      1  O   HOH     1      -8.413   9.452 -10.309  0.00  0.00    +0.000 OA
ENDROOT
TORSDOF 0
REMARK  Name = ../refined-set-2016/3cyw/3cyw_pocket.pdb
REMARK  231 active torsions:
REMARK  status: ('A' for Active; 'I' for Inactive)
REMARK    1  A    between atoms: _1  and  _3
REMARK    2  A    between atoms: _3  and  _4
REMARK    3  A    between atoms: _3  and  _6
REMARK    4  A    between atoms: _6  and  _7
REMARK    5  A    between atoms: _7  and  _8
REMARK    6  A    between atoms: _8  and  _9
REMARK    7  A    between atoms: _18  and  _20
REMARK    8  A    between atoms: _20  and  _21
REMARK    9  A    between atoms: _20  and  _23
REMARK   10  A    between atoms: _23  and  _24
REMARK   11  A    between atoms: _27  and  _29
REMARK   12  A    between atoms: _29  and  _30
REMARK   13  A    between atoms: _29  and  _32
REMARK   14  A    between atoms: _32  and  _33
REMARK   15  A    between atoms: _36  and  _38
REMARK   16  A    between atoms: _38  and  _39
REMARK   17  A    between atoms: _38  and  _41
REMARK   18  A    between atoms: _41  and  _42
REMARK   19  A    between atoms: _45  and  _47
REMARK   20  A    between atoms: _47  and  _48
REMARK   21  A    between atoms: _47  and  _50
REMARK   22  A    between atoms: _50  and  _51
REMARK   23  A    between atoms: _54  and  _56
REMARK   24  A    between atoms: _56  and  _57
REMARK   25  A    between atoms: _59  and  _61
REMARK   26  A    between atoms: _61  and  _62
REMARK   27  A    between atoms: _65  and  _67
REMARK   28  A    between atoms: _67  and  _68
REMARK   29  A    between atoms: _67  and  _70
REMARK   30  A    between atoms: _70  and  _71
REMARK   31  A    between atoms: _74  and  _76
REMARK   32  A    between atoms: _76  and  _77
REMARK   33  A    between atoms: _76  and  _79
REMARK   34  A    between atoms: _79  and  _80
REMARK   35  A    between atoms: _83  and  _85
REMARK   36  A    between atoms: _85  and  _86
REMARK   37  A    between atoms: _85  and  _88
REMARK   38  A    between atoms: _88  and  _89
REMARK   39  A    between atoms: _92  and  _94
REMARK   40  A    between atoms: _94  and  _95
REMARK   41  A    between atoms: _94  and  _97
REMARK   42  A    between atoms: _100  and  _102
REMARK   43  A    between atoms: _102  and  _103
REMARK   44  A    between atoms: _102  and  _105
REMARK   45  A    between atoms: _105  and  _106
REMARK   46  A    between atoms: _109  and  _111
REMARK   47  A    between atoms: _111  and  _112
REMARK   48  A    between atoms: _111  and  _114
REMARK   49  A    between atoms: _115  and  _116
REMARK   50  A    between atoms: _116  and  _117
REMARK   51  A    between atoms: _117  and  _118
REMARK   52  A    between atoms: _122  and  _124
REMARK   53  A    between atoms: _124  and  _125
REMARK   54  A    between atoms: _124  and  _127
REMARK   55  A    between atoms: _127  and  _128
REMARK   56  A    between atoms: _128  and  _129
REMARK   57  A    between atoms: _131  and  _133
REMARK   58  A    between atoms: _133  and  _134
REMARK   59  A    between atoms: _133  and  _136
REMARK   60  A    between atoms: _136  and  _137
REMARK   61  A    between atoms: _140  and  _142
REMARK   62  A    between atoms: _142  and  _143
REMARK   63  A    between atoms: _142  and  _145
REMARK   64  A    between atoms: _148  and  _150
REMARK   65  A    between atoms: _150  and  _151
REMARK   66  A    between atoms: _153  and  _155
REMARK   67  A    between atoms: _155  and  _156
REMARK   68  A    between atoms: _155  and  _158
REMARK   69  A    between atoms: _158  and  _159
REMARK   70  A    between atoms: _162  and  _164
REMARK   71  A    between atoms: _164  and  _165
REMARK   72  A    between atoms: _167  and  _169
REMARK   73  A    between atoms: _169  and  _170
REMARK   74  A    between atoms: _172  and  _174
REMARK   75  A    between atoms: _174  and  _175
REMARK   76  A    between atoms: _174  and  _177
REMARK   77  A    between atoms: _177  and  _178
REMARK   78  A    between atoms: _184  and  _186
REMARK   79  A    between atoms: _186  and  _187
REMARK   80  A    between atoms: _186  and  _189
REMARK   81  A    between atoms: _189  and  _190
REMARK   82  A    between atoms: _193  and  _195
REMARK   83  A    between atoms: _195  and  _196
REMARK   84  A    between atoms: _195  and  _198
REMARK   85  A    between atoms: _201  and  _203
REMARK   86  A    between atoms: _203  and  _204
REMARK   87  A    between atoms: _203  and  _206
REMARK   88  A    between atoms: _206  and  _207
REMARK   89  A    between atoms: _211  and  _212
REMARK   90  A    between atoms: _217  and  _219
REMARK   91  A    between atoms: _219  and  _220
REMARK   92  A    between atoms: _219  and  _222
REMARK   93  A    between atoms: _222  and  _223
REMARK   94  A    between atoms: _227  and  _228
REMARK   95  A    between atoms: _233  and  _235
REMARK   96  A    between atoms: _235  and  _236
REMARK   97  A    between atoms: _235  and  _238
REMARK   98  A    between atoms: _241  and  _243
REMARK   99  A    between atoms: _243  and  _244
REMARK  100  A    between atoms: _243  and  _246
REMARK  101  A    between atoms: _246  and  _247
REMARK  102  A    between atoms: _252  and  _254
REMARK  103  A    between atoms: _254  and  _255
REMARK  104  A    between atoms: _254  and  _257
REMARK  105  A    between atoms: _257  and  _258
REMARK  106  A    between atoms: _261  and  _263
REMARK  107  A    between atoms: _263  and  _264
REMARK  108  A    between atoms: _263  and  _266
REMARK  109  A    between atoms: _266  and  _267
REMARK  110  A    between atoms: _270  and  _272
REMARK  111  A    between atoms: _272  and  _273
REMARK  112  A    between atoms: _275  and  _277
REMARK  113  A    between atoms: _277  and  _278
REMARK  114  A    between atoms: _277  and  _280
REMARK  115  A    between atoms: _280  and  _281
REMARK  116  A    between atoms: _281  and  _282
REMARK  117  A    between atoms: _282  and  _283
REMARK  118  A    between atoms: _292  and  _294
REMARK  119  A    between atoms: _294  and  _295
REMARK  120  A    between atoms: _294  and  _297
REMARK  121  A    between atoms: _297  and  _298
REMARK  122  A    between atoms: _303  and  _305
REMARK  123  A    between atoms: _305  and  _306
REMARK  124  A    between atoms: _305  and  _308
REMARK  125  A    between atoms: _308  and  _309
REMARK  126  A    between atoms: _309  and  _310
REMARK  127  A    between atoms: _310  and  _311
REMARK  128  A    between atoms: _320  and  _322
REMARK  129  A    between atoms: _322  and  _323
REMARK  130  A    between atoms: _322  and  _325
REMARK  131  A    between atoms: _325  and  _326
REMARK  132  A    between atoms: _329  and  _331
REMARK  133  A    between atoms: _331  and  _332
REMARK  134  A    between atoms: _331  and  _334
REMARK  135  A    between atoms: _334  and  _335
REMARK  136  A    between atoms: _338  and  _340
REMARK  137  A    between atoms: _340  and  _341
REMARK  138  A    between atoms: _340  and  _343
REMARK  139  A    between atoms: _343  and  _344
REMARK  140  A    between atoms: _347  and  _349
REMARK  141  A    between atoms: _349  and  _350
REMARK  142  A    between atoms: _349  and  _352
REMARK  143  A    between atoms: _352  and  _353
REMARK  144  A    between atoms: _356  and  _358
REMARK  145  A    between atoms: _358  and  _359
REMARK  146  A    between atoms: _361  and  _363
REMARK  147  A    between atoms: _363  and  _364
REMARK  148  A    between atoms: _367  and  _369
REMARK  149  A    between atoms: _369  and  _370
REMARK  150  A    between atoms: _369  and  _372
REMARK  151  A    between atoms: _372  and  _373
REMARK  152  A    between atoms: _376  and  _378
REMARK  153  A    between atoms: _378  and  _379
REMARK  154  A    between atoms: _378  and  _381
REMARK  155  A    between atoms: _381  and  _382
REMARK  156  A    between atoms: _385  and  _387
REMARK  157  A    between atoms: _387  and  _388
REMARK  158  A    between atoms: _387  and  _390
REMARK  159  A    between atoms: _390  and  _391
REMARK  160  A    between atoms: _394  and  _396
REMARK  161  A    between atoms: _396  and  _397
REMARK  162  A    between atoms: _396  and  _399
REMARK  163  A    between atoms: _402  and  _404
REMARK  164  A    between atoms: _404  and  _405
REMARK  165  A    between atoms: _404  and  _407
REMARK  166  A    between atoms: _407  and  _408
REMARK  167  A    between atoms: _408  and  _409
REMARK  168  A    between atoms: _409  and  _410
REMARK  169  A    between atoms: _410  and  _411
REMARK  170  A    between atoms: _415  and  _417
REMARK  171  A    between atoms: _417  and  _418
REMARK  172  A    between atoms: _417  and  _420
REMARK  173  A    between atoms: _420  and  _421
REMARK  174  A    between atoms: _421  and  _422
REMARK  175  A    between atoms: _424  and  _426
REMARK  176  A    between atoms: _426  and  _427
REMARK  177  A    between atoms: _426  and  _429
REMARK  178  A    between atoms: _429  and  _430
REMARK  179  A    between atoms: _433  and  _435
REMARK  180  A    between atoms: _435  and  _436
REMARK  181  A    between atoms: _435  and  _438
REMARK  182  A    between atoms: _441  and  _443
REMARK  183  A    between atoms: _443  and  _444
REMARK  184  A    between atoms: _446  and  _448
REMARK  185  A    between atoms: _448  and  _449
REMARK  186  A    between atoms: _448  and  _451
REMARK  187  A    between atoms: _451  and  _452
REMARK  188  A    between atoms: _455  and  _457
REMARK  189  A    between atoms: _457  and  _458
REMARK  190  A    between atoms: _460  and  _462
REMARK  191  A    between atoms: _462  and  _463
REMARK  192  A    between atoms: _465  and  _467
REMARK  193  A    between atoms: _467  and  _468
REMARK  194  A    between atoms: _467  and  _470
REMARK  195  A    between atoms: _470  and  _471
REMARK  196  A    between atoms: _474  and  _476
REMARK  197  A    between atoms: _476  and  _477
REMARK  198  A    between atoms: _476  and  _479
REMARK  199  A    between atoms: _479  and  _480
REMARK  200  A    between atoms: _483  and  _485
REMARK  201  A    between atoms: _485  and  _486
REMARK  202  A    between atoms: _485  and  _488
REMARK  203  A    between atoms: _488  and  _489
REMARK  204  A    between atoms: _493  and  _494
REMARK  205  A    between atoms: _499  and  _501
REMARK  206  A    between atoms: _501  and  _502
REMARK  207  A    between atoms: _501  and  _504
REMARK  208  A    between atoms: _507  and  _509
REMARK  209  A    between atoms: _509  and  _510
REMARK  210  A    between atoms: _509  and  _512
REMARK  211  A    between atoms: _512  and  _513
REMARK  212  A    between atoms: _518  and  _520
REMARK  213  A    between atoms: _520  and  _521
REMARK  214  A    between atoms: _520  and  _523
REMARK  215  A    between atoms: _523  and  _524
REMARK  216  A    between atoms: _527  and  _529
REMARK  217  A    between atoms: _529  and  _530
REMARK  218  A    between atoms: _529  and  _532
REMARK  219  A    between atoms: _532  and  _533
REMARK  220  A    between atoms: _536  and  _538
REMARK  221  A    between atoms: _538  and  _539
REMARK  222  A    between atoms: _541  and  _543
REMARK  223  A    between atoms: _543  and  _544
REMARK  224  A    between atoms: _543  and  _546
REMARK  225  A    between atoms: _546  and  _547
REMARK  226  A    between atoms: _547  and  _548
REMARK  227  A    between atoms: _548  and  _549
REMARK  228  A    between atoms: _558  and  _560
REMARK  229  A    between atoms: _560  and  _561
REMARK  230  A    between atoms: _560  and  _563
REMARK  231  A    between atoms: _563  and  _564
REMARK                            x       y       z     vdW  Elec       q    Type
REMARK                         _______ _______ _______ _____ _____    ______ ____
ROOT
ATOM      1  O   HOH     1     -22.602  20.675 -11.159  0.00  0.00    +0.000 OA
ENDROOT
TORSDOF 0
REMARK  Name = ../refined-set-2016/3cyw/3cyw_pocket.pdb
REMARK  231 active torsions:
REMARK  status: ('A' for Active; 'I' for Inactive)
REMARK    1  A    between atoms: _1  and  _3
REMARK    2  A    between atoms: _3  and  _4
REMARK    3  A    between atoms: _3  and  _6
REMARK    4  A    between atoms: _6  and  _7
REMARK    5  A    between atoms: _7  and  _8
REMARK    6  A    between atoms: _8  and  _9
REMARK    7  A    between atoms: _18  and  _20
REMARK    8  A    between atoms: _20  and  _21
REMARK    9  A    between atoms: _20  and  _23
REMARK   10  A    between atoms: _23  and  _24
REMARK   11  A    between atoms: _27  and  _29
REMARK   12  A    between atoms: _29  and  _30
REMARK   13  A    between atoms: _29  and  _32
REMARK   14  A    between atoms: _32  and  _33
REMARK   15  A    between atoms: _36  and  _38
REMARK   16  A    between atoms: _38  and  _39
REMARK   17  A    between atoms: _38  and  _41
REMARK   18  A    between atoms: _41  and  _42
REMARK   19  A    between atoms: _45  and  _47
REMARK   20  A    between atoms: _47  and  _48
REMARK   21  A    between atoms: _47  and  _50
REMARK   22  A    between atoms: _50  and  _51
REMARK   23  A    between atoms: _54  and  _56
REMARK   24  A    between atoms: _56  and  _57
REMARK   25  A    between atoms: _59  and  _61
REMARK   26  A    between atoms: _61  and  _62
REMARK   27  A    between atoms: _65  and  _67
REMARK   28  A    between atoms: _67  and  _68
REMARK   29  A    between atoms: _67  and  _70
REMARK   30  A    between atoms: _70  and  _71
REMARK   31  A    between atoms: _74  and  _76
REMARK   32  A    between atoms: _76  and  _77
REMARK   33  A    between atoms: _76  and  _79
REMARK   34  A    between atoms: _79  and  _80
REMARK   35  A    between atoms: _83  and  _85
REMARK   36  A    between atoms: _85  and  _86
REMARK   37  A    between atoms: _85  and  _88
REMARK   38  A    between atoms: _88  and  _89
REMARK   39  A    between atoms: _92  and  _94
REMARK   40  A    between atoms: _94  and  _95
REMARK   41  A    between atoms: _94  and  _97
REMARK   42  A    between atoms: _100  and  _102
REMARK   43  A    between atoms: _102  and  _103
REMARK   44  A    between atoms: _102  and  _105
REMARK   45  A    between atoms: _105  and  _106
REMARK   46  A    between atoms: _109  and  _111
REMARK   47  A    between atoms: _111  and  _112
REMARK   48  A    between atoms: _111  and  _114
REMARK   49  A    between atoms: _115  and  _116
REMARK   50  A    between atoms: _116  and  _117
REMARK   51  A    between atoms: _117  and  _118
REMARK   52  A    between atoms: _122  and  _124
REMARK   53  A    between atoms: _124  and  _125
REMARK   54  A    between atoms: _124  and  _127
REMARK   55  A    between atoms: _127  and  _128
REMARK   56  A    between atoms: _128  and  _129
REMARK   57  A    between atoms: _131  and  _133
REMARK   58  A    between atoms: _133  and  _134
REMARK   59  A    between atoms: _133  and  _136
REMARK   60  A    between atoms: _136  and  _137
REMARK   61  A    between atoms: _140  and  _142
REMARK   62  A    between atoms: _142  and  _143
REMARK   63  A    between atoms: _142  and  _145
REMARK   64  A    between atoms: _148  and  _150
REMARK   65  A    between atoms: _150  and  _151
REMARK   66  A    between atoms: _153  and  _155
REMARK   67  A    between atoms: _155  and  _156
REMARK   68  A    between atoms: _155  and  _158
REMARK   69  A    between atoms: _158  and  _159
REMARK   70  A    between atoms: _162  and  _164
REMARK   71  A    between atoms: _164  and  _165
REMARK   72  A    between atoms: _167  and  _169
REMARK   73  A    between atoms: _169  and  _170
REMARK   74  A    between atoms: _172  and  _174
REMARK   75  A    between atoms: _174  and  _175
REMARK   76  A    between atoms: _174  and  _177
REMARK   77  A    between atoms: _177  and  _178
REMARK   78  A    between atoms: _184  and  _186
REMARK   79  A    between atoms: _186  and  _187
REMARK   80  A    between atoms: _186  and  _189
REMARK   81  A    between atoms: _189  and  _190
REMARK   82  A    between atoms: _193  and  _195
REMARK   83  A    between atoms: _195  and  _196
REMARK   84  A    between atoms: _195  and  _198
REMARK   85  A    between atoms: _201  and  _203
REMARK   86  A    between atoms: _203  and  _204
REMARK   87  A    between atoms: _203  and  _206
REMARK   88  A    between atoms: _206  and  _207
REMARK   89  A    between atoms: _211  and  _212
REMARK   90  A    between atoms: _217  and  _219
REMARK   91  A    between atoms: _219  and  _220
REMARK   92  A    between atoms: _219  and  _222
REMARK   93  A    between atoms: _222  and  _223
REMARK   94  A    between atoms: _227  and  _228
REMARK   95  A    between atoms: _233  and  _235
REMARK   96  A    between atoms: _235  and  _236
REMARK   97  A    between atoms: _235  and  _238
REMARK   98  A    between atoms: _241  and  _243
REMARK   99  A    between atoms: _243  and  _244
REMARK  100  A    between atoms: _243  and  _246
REMARK  101  A    between atoms: _246  and  _247
REMARK  102  A    between atoms: _252  and  _254
REMARK  103  A    between atoms: _254  and  _255
REMARK  104  A    between atoms: _254  and  _257
REMARK  105  A    between atoms: _257  and  _258
REMARK  106  A    between atoms: _261  and  _263
REMARK  107  A    between atoms: _263  and  _264
REMARK  108  A    between atoms: _263  and  _266
REMARK  109  A    between atoms: _266  and  _267
REMARK  110  A    between atoms: _270  and  _272
REMARK  111  A    between atoms: _272  and  _273
REMARK  112  A    between atoms: _275  and  _277
REMARK  113  A    between atoms: _277  and  _278
REMARK  114  A    between atoms: _277  and  _280
REMARK  115  A    between atoms: _280  and  _281
REMARK  116  A    between atoms: _281  and  _282
REMARK  117  A    between atoms: _282  and  _283
REMARK  118  A    between atoms: _292  and  _294
REMARK  119  A    between atoms: _294  and  _295
REMARK  120  A    between atoms: _294  and  _297
REMARK  121  A    between atoms: _297  and  _298
REMARK  122  A    between atoms: _303  and  _305
REMARK  123  A    between atoms: _305  and  _306
REMARK  124  A    between atoms: _305  and  _308
REMARK  125  A    between atoms: _308  and  _309
REMARK  126  A    between atoms: _309  and  _310
REMARK  127  A    between atoms: _310  and  _311
REMARK  128  A    between atoms: _320  and  _322
REMARK  129  A    between atoms: _322  and  _323
REMARK  130  A    between atoms: _322  and  _325
REMARK  131  A    between atoms: _325  and  _326
REMARK  132  A    between atoms: _329  and  _331
REMARK  133  A    between atoms: _331  and  _332
REMARK  134  A    between atoms: _331  and  _334
REMARK  135  A    between atoms: _334  and  _335
REMARK  136  A    between atoms: _338  and  _340
REMARK  137  A    between atoms: _340  and  _341
REMARK  138  A    between atoms: _340  and  _343
REMARK  139  A    between atoms: _343  and  _344
REMARK  140  A    between atoms: _347  and  _349
REMARK  141  A    between atoms: _349  and  _350
REMARK  142  A    between atoms: _349  and  _352
REMARK  143  A    between atoms: _352  and  _353
REMARK  144  A    between atoms: _356  and  _358
REMARK  145  A    between atoms: _358  and  _359
REMARK  146  A    between atoms: _361  and  _363
REMARK  147  A    between atoms: _363  and  _364
REMARK  148  A    between atoms: _367  and  _369
REMARK  149  A    between atoms: _369  and  _370
REMARK  150  A    between atoms: _369  and  _372
REMARK  151  A    between atoms: _372  and  _373
REMARK  152  A    between atoms: _376  and  _378
REMARK  153  A    between atoms: _378  and  _379
REMARK  154  A    between atoms: _378  and  _381
REMARK  155  A    between atoms: _381  and  _382
REMARK  156  A    between atoms: _385  and  _387
REMARK  157  A    between atoms: _387  and  _388
REMARK  158  A    between atoms: _387  and  _390
REMARK  159  A    between atoms: _390  and  _391
REMARK  160  A    between atoms: _394  and  _396
REMARK  161  A    between atoms: _396  and  _397
REMARK  162  A    between atoms: _396  and  _399
REMARK  163  A    between atoms: _402  and  _404
REMARK  164  A    between atoms: _404  and  _405
REMARK  165  A    between atoms: _404  and  _407
REMARK  166  A    between atoms: _407  and  _408
REMARK  167  A    between atoms: _408  and  _409
REMARK  168  A    between atoms: _409  and  _410
REMARK  169  A    between atoms: _410  and  _411
REMARK  170  A    between atoms: _415  and  _417
REMARK  171  A    between atoms: _417  and  _418
REMARK  172  A    between atoms: _417  and  _420
REMARK  173  A    between atoms: _420  and  _421
REMARK  174  A    between atoms: _421  and  _422
REMARK  175  A    between atoms: _424  and  _426
REMARK  176  A    between atoms: _426  and  _427
REMARK  177  A    between atoms: _426  and  _429
REMARK  178  A    between atoms: _429  and  _430
REMARK  179  A    between atoms: _433  and  _435
REMARK  180  A    between atoms: _435  and  _436
REMARK  181  A    between atoms: _435  and  _438
REMARK  182  A    between atoms: _441  and  _443
REMARK  183  A    between atoms: _443  and  _444
REMARK  184  A    between atoms: _446  and  _448
REMARK  185  A    between atoms: _448  and  _449
REMARK  186  A    between atoms: _448  and  _451
REMARK  187  A    between atoms: _451  and  _452
REMARK  188  A    between atoms: _455  and  _457
REMARK  189  A    between atoms: _457  and  _458
REMARK  190  A    between atoms: _460  and  _462
REMARK  191  A    between atoms: _462  and  _463
REMARK  192  A    between atoms: _465  and  _467
REMARK  193  A    between atoms: _467  and  _468
REMARK  194  A    between atoms: _467  and  _470
REMARK  195  A    between atoms: _470  and  _471
REMARK  196  A    between atoms: _474  and  _476
REMARK  197  A    between atoms: _476  and  _477
REMARK  198  A    between atoms: _476  and  _479
REMARK  199  A    between atoms: _479  and  _480
REMARK  200  A    between atoms: _483  and  _485
REMARK  201  A    between atoms: _485  and  _486
REMARK  202  A    between atoms: _485  and  _488
REMARK  203  A    between atoms: _488  and  _489
REMARK  204  A    between atoms: _493  and  _494
REMARK  205  A    between atoms: _499  and  _501
REMARK  206  A    between atoms: _501  and  _502
REMARK  207  A    between atoms: _501  and  _504
REMARK  208  A    between atoms: _507  and  _509
REMARK  209  A    between atoms: _509  and  _510
REMARK  210  A    between atoms: _509  and  _512
REMARK  211  A    between atoms: _512  and  _513
REMARK  212  A    between atoms: _518  and  _520
REMARK  213  A    between atoms: _520  and  _521
REMARK  214  A    between atoms: _520  and  _523
REMARK  215  A    between atoms: _523  and  _524
REMARK  216  A    between atoms: _527  and  _529
REMARK  217  A    between atoms: _529  and  _530
REMARK  218  A    between atoms: _529  and  _532
REMARK  219  A    between atoms: _532  and  _533
REMARK  220  A    between atoms: _536  and  _538
REMARK  221  A    between atoms: _538  and  _539
REMARK  222  A    between atoms: _541  and  _543
REMARK  223  A    between atoms: _543  and  _544
REMARK  224  A    between atoms: _543  and  _546
REMARK  225  A    between atoms: _546  and  _547
REMARK  226  A    between atoms: _547  and  _548
REMARK  227  A    between atoms: _548  and  _549
REMARK  228  A    between atoms: _558  and  _560
REMARK  229  A    between atoms: _560  and  _561
REMARK  230  A    between atoms: _560  and  _563
REMARK  231  A    between atoms: _563  and  _564
REMARK                            x       y       z     vdW  Elec       q    Type
REMARK                         _______ _______ _______ _____ _____    ______ ____
ROOT
ATOM      1  O   HOH     1     -22.252  19.550  -8.602  0.00  0.00    +0.000 OA
ENDROOT
TORSDOF 0
REMARK  Name = ../refined-set-2016/3cyw/3cyw_pocket.pdb
REMARK  231 active torsions:
REMARK  status: ('A' for Active; 'I' for Inactive)
REMARK    1  A    between atoms: _1  and  _3
REMARK    2  A    between atoms: _3  and  _4
REMARK    3  A    between atoms: _3  and  _6
REMARK    4  A    between atoms: _6  and  _7
REMARK    5  A    between atoms: _7  and  _8
REMARK    6  A    between atoms: _8  and  _9
REMARK    7  A    between atoms: _18  and  _20
REMARK    8  A    between atoms: _20  and  _21
REMARK    9  A    between atoms: _20  and  _23
REMARK   10  A    between atoms: _23  and  _24
REMARK   11  A    between atoms: _27  and  _29
REMARK   12  A    between atoms: _29  and  _30
REMARK   13  A    between atoms: _29  and  _32
REMARK   14  A    between atoms: _32  and  _33
REMARK   15  A    between atoms: _36  and  _38
REMARK   16  A    between atoms: _38  and  _39
REMARK   17  A    between atoms: _38  and  _41
REMARK   18  A    between atoms: _41  and  _42
REMARK   19  A    between atoms: _45  and  _47
REMARK   20  A    between atoms: _47  and  _48
REMARK   21  A    between atoms: _47  and  _50
REMARK   22  A    between atoms: _50  and  _51
REMARK   23  A    between atoms: _54  and  _56
REMARK   24  A    between atoms: _56  and  _57
REMARK   25  A    between atoms: _59  and  _61
REMARK   26  A    between atoms: _61  and  _62
REMARK   27  A    between atoms: _65  and  _67
REMARK   28  A    between atoms: _67  and  _68
REMARK   29  A    between atoms: _67  and  _70
REMARK   30  A    between atoms: _70  and  _71
REMARK   31  A    between atoms: _74  and  _76
REMARK   32  A    between atoms: _76  and  _77
REMARK   33  A    between atoms: _76  and  _79
REMARK   34  A    between atoms: _79  and  _80
REMARK   35  A    between atoms: _83  and  _85
REMARK   36  A    between atoms: _85  and  _86
REMARK   37  A    between atoms: _85  and  _88
REMARK   38  A    between atoms: _88  and  _89
REMARK   39  A    between atoms: _92  and  _94
REMARK   40  A    between atoms: _94  and  _95
REMARK   41  A    between atoms: _94  and  _97
REMARK   42  A    between atoms: _100  and  _102
REMARK   43  A    between atoms: _102  and  _103
REMARK   44  A    between atoms: _102  and  _105
REMARK   45  A    between atoms: _105  and  _106
REMARK   46  A    between atoms: _109  and  _111
REMARK   47  A    between atoms: _111  and  _112
REMARK   48  A    between atoms: _111  and  _114
REMARK   49  A    between atoms: _115  and  _116
REMARK   50  A    between atoms: _116  and  _117
REMARK   51  A    between atoms: _117  and  _118
REMARK   52  A    between atoms: _122  and  _124
REMARK   53  A    between atoms: _124  and  _125
REMARK   54  A    between atoms: _124  and  _127
REMARK   55  A    between atoms: _127  and  _128
REMARK   56  A    between atoms: _128  and  _129
REMARK   57  A    between atoms: _131  and  _133
REMARK   58  A    between atoms: _133  and  _134
REMARK   59  A    between atoms: _133  and  _136
REMARK   60  A    between atoms: _136  and  _137
REMARK   61  A    between atoms: _140  and  _142
REMARK   62  A    between atoms: _142  and  _143
REMARK   63  A    between atoms: _142  and  _145
REMARK   64  A    between atoms: _148  and  _150
REMARK   65  A    between atoms: _150  and  _151
REMARK   66  A    between atoms: _153  and  _155
REMARK   67  A    between atoms: _155  and  _156
REMARK   68  A    between atoms: _155  and  _158
REMARK   69  A    between atoms: _158  and  _159
REMARK   70  A    between atoms: _162  and  _164
REMARK   71  A    between atoms: _164  and  _165
REMARK   72  A    between atoms: _167  and  _169
REMARK   73  A    between atoms: _169  and  _170
REMARK   74  A    between atoms: _172  and  _174
REMARK   75  A    between atoms: _174  and  _175
REMARK   76  A    between atoms: _174  and  _177
REMARK   77  A    between atoms: _177  and  _178
REMARK   78  A    between atoms: _184  and  _186
REMARK   79  A    between atoms: _186  and  _187
REMARK   80  A    between atoms: _186  and  _189
REMARK   81  A    between atoms: _189  and  _190
REMARK   82  A    between atoms: _193  and  _195
REMARK   83  A    between atoms: _195  and  _196
REMARK   84  A    between atoms: _195  and  _198
REMARK   85  A    between atoms: _201  and  _203
REMARK   86  A    between atoms: _203  and  _204
REMARK   87  A    between atoms: _203  and  _206
REMARK   88  A    between atoms: _206  and  _207
REMARK   89  A    between atoms: _211  and  _212
REMARK   90  A    between atoms: _217  and  _219
REMARK   91  A    between atoms: _219  and  _220
REMARK   92  A    between atoms: _219  and  _222
REMARK   93  A    between atoms: _222  and  _223
REMARK   94  A    between atoms: _227  and  _228
REMARK   95  A    between atoms: _233  and  _235
REMARK   96  A    between atoms: _235  and  _236
REMARK   97  A    between atoms: _235  and  _238
REMARK   98  A    between atoms: _241  and  _243
REMARK   99  A    between atoms: _243  and  _244
REMARK  100  A    between atoms: _243  and  _246
REMARK  101  A    between atoms: _246  and  _247
REMARK  102  A    between atoms: _252  and  _254
REMARK  103  A    between atoms: _254  and  _255
REMARK  104  A    between atoms: _254  and  _257
REMARK  105  A    between atoms: _257  and  _258
REMARK  106  A    between atoms: _261  and  _263
REMARK  107  A    between atoms: _263  and  _264
REMARK  108  A    between atoms: _263  and  _266
REMARK  109  A    between atoms: _266  and  _267
REMARK  110  A    between atoms: _270  and  _272
REMARK  111  A    between atoms: _272  and  _273
REMARK  112  A    between atoms: _275  and  _277
REMARK  113  A    between atoms: _277  and  _278
REMARK  114  A    between atoms: _277  and  _280
REMARK  115  A    between atoms: _280  and  _281
REMARK  116  A    between atoms: _281  and  _282
REMARK  117  A    between atoms: _282  and  _283
REMARK  118  A    between atoms: _292  and  _294
REMARK  119  A    between atoms: _294  and  _295
REMARK  120  A    between atoms: _294  and  _297
REMARK  121  A    between atoms: _297  and  _298
REMARK  122  A    between atoms: _303  and  _305
REMARK  123  A    between atoms: _305  and  _306
REMARK  124  A    between atoms: _305  and  _308
REMARK  125  A    between atoms: _308  and  _309
REMARK  126  A    between atoms: _309  and  _310
REMARK  127  A    between atoms: _310  and  _311
REMARK  128  A    between atoms: _320  and  _322
REMARK  129  A    between atoms: _322  and  _323
REMARK  130  A    between atoms: _322  and  _325
REMARK  131  A    between atoms: _325  and  _326
REMARK  132  A    between atoms: _329  and  _331
REMARK  133  A    between atoms: _331  and  _332
REMARK  134  A    between atoms: _331  and  _334
REMARK  135  A    between atoms: _334  and  _335
REMARK  136  A    between atoms: _338  and  _340
REMARK  137  A    between atoms: _340  and  _341
REMARK  138  A    between atoms: _340  and  _343
REMARK  139  A    between atoms: _343  and  _344
REMARK  140  A    between atoms: _347  and  _349
REMARK  141  A    between atoms: _349  and  _350
REMARK  142  A    between atoms: _349  and  _352
REMARK  143  A    between atoms: _352  and  _353
REMARK  144  A    between atoms: _356  and  _358
REMARK  145  A    between atoms: _358  and  _359
REMARK  146  A    between atoms: _361  and  _363
REMARK  147  A    between atoms: _363  and  _364
REMARK  148  A    between atoms: _367  and  _369
REMARK  149  A    between atoms: _369  and  _370
REMARK  150  A    between atoms: _369  and  _372
REMARK  151  A    between atoms: _372  and  _373
REMARK  152  A    between atoms: _376  and  _378
REMARK  153  A    between atoms: _378  and  _379
REMARK  154  A    between atoms: _378  and  _381
REMARK  155  A    between atoms: _381  and  _382
REMARK  156  A    between atoms: _385  and  _387
REMARK  157  A    between atoms: _387  and  _388
REMARK  158  A    between atoms: _387  and  _390
REMARK  159  A    between atoms: _390  and  _391
REMARK  160  A    between atoms: _394  and  _396
REMARK  161  A    between atoms: _396  and  _397
REMARK  162  A    between atoms: _396  and  _399
REMARK  163  A    between atoms: _402  and  _404
REMARK  164  A    between atoms: _404  and  _405
REMARK  165  A    between atoms: _404  and  _407
REMARK  166  A    between atoms: _407  and  _408
REMARK  167  A    between atoms: _408  and  _409
REMARK  168  A    between atoms: _409  and  _410
REMARK  169  A    between atoms: _410  and  _411
REMARK  170  A    between atoms: _415  and  _417
REMARK  171  A    between atoms: _417  and  _418
REMARK  172  A    between atoms: _417  and  _420
REMARK  173  A    between atoms: _420  and  _421
REMARK  174  A    between atoms: _421  and  _422
REMARK  175  A    between atoms: _424  and  _426
REMARK  176  A    between atoms: _426  and  _427
REMARK  177  A    between atoms: _426  and  _429
REMARK  178  A    between atoms: _429  and  _430
REMARK  179  A    between atoms: _433  and  _435
REMARK  180  A    between atoms: _435  and  _436
REMARK  181  A    between atoms: _435  and  _438
REMARK  182  A    between atoms: _441  and  _443
REMARK  183  A    between atoms: _443  and  _444
REMARK  184  A    between atoms: _446  and  _448
REMARK  185  A    between atoms: _448  and  _449
REMARK  186  A    between atoms: _448  and  _451
REMARK  187  A    between atoms: _451  and  _452
REMARK  188  A    between atoms: _455  and  _457
REMARK  189  A    between atoms: _457  and  _458
REMARK  190  A    between atoms: _460  and  _462
REMARK  191  A    between atoms: _462  and  _463
REMARK  192  A    between atoms: _465  and  _467
REMARK  193  A    between atoms: _467  and  _468
REMARK  194  A    between atoms: _467  and  _470
REMARK  195  A    between atoms: _470  and  _471
REMARK  196  A    between atoms: _474  and  _476
REMARK  197  A    between atoms: _476  and  _477
REMARK  198  A    between atoms: _476  and  _479
REMARK  199  A    between atoms: _479  and  _480
REMARK  200  A    between atoms: _483  and  _485
REMARK  201  A    between atoms: _485  and  _486
REMARK  202  A    between atoms: _485  and  _488
REMARK  203  A    between atoms: _488  and  _489
REMARK  204  A    between atoms: _493  and  _494
REMARK  205  A    between atoms: _499  and  _501
REMARK  206  A    between atoms: _501  and  _502
REMARK  207  A    between atoms: _501  and  _504
REMARK  208  A    between atoms: _507  and  _509
REMARK  209  A    between atoms: _509  and  _510
REMARK  210  A    between atoms: _509  and  _512
REMARK  211  A    between atoms: _512  and  _513
REMARK  212  A    between atoms: _518  and  _520
REMARK  213  A    between atoms: _520  and  _521
REMARK  214  A    between atoms: _520  and  _523
REMARK  215  A    between atoms: _523  and  _524
REMARK  216  A    between atoms: _527  and  _529
REMARK  217  A    between atoms: _529  and  _530
REMARK  218  A    between atoms: _529  and  _532
REMARK  219  A    between atoms: _532  and  _533
REMARK  220  A    between atoms: _536  and  _538
REMARK  221  A    between atoms: _538  and  _539
REMARK  222  A    between atoms: _541  and  _543
REMARK  223  A    between atoms: _543  and  _544
REMARK  224  A    between atoms: _543  and  _546
REMARK  225  A    between atoms: _546  and  _547
REMARK  226  A    between atoms: _547  and  _548
REMARK  227  A    between atoms: _548  and  _549
REMARK  228  A    between atoms: _558  and  _560
REMARK  229  A    between atoms: _560  and  _561
REMARK  230  A    between atoms: _560  and  _563
REMARK  231  A    between atoms: _563  and  _564
REMARK                            x       y       z     vdW  Elec       q    Type
REMARK                         _______ _______ _______ _____ _____    ______ ____
ROOT
ATOM      1  O   HOH     1      -4.293   9.446 -15.714  0.00  0.00    +0.000 OA
ENDROOT
TORSDOF 0
REMARK  Name = ../refined-set-2016/3cyw/3cyw_pocket.pdb
REMARK  231 active torsions:
REMARK  status: ('A' for Active; 'I' for Inactive)
REMARK    1  A    between atoms: _1  and  _3
REMARK    2  A    between atoms: _3  and  _4
REMARK    3  A    between atoms: _3  and  _6
REMARK    4  A    between atoms: _6  and  _7
REMARK    5  A    between atoms: _7  and  _8
REMARK    6  A    between atoms: _8  and  _9
REMARK    7  A    between atoms: _18  and  _20
REMARK    8  A    between atoms: _20  and  _21
REMARK    9  A    between atoms: _20  and  _23
REMARK   10  A    between atoms: _23  and  _24
REMARK   11  A    between atoms: _27  and  _29
REMARK   12  A    between atoms: _29  and  _30
REMARK   13  A    between atoms: _29  and  _32
REMARK   14  A    between atoms: _32  and  _33
REMARK   15  A    between atoms: _36  and  _38
REMARK   16  A    between atoms: _38  and  _39
REMARK   17  A    between atoms: _38  and  _41
REMARK   18  A    between atoms: _41  and  _42
REMARK   19  A    between atoms: _45  and  _47
REMARK   20  A    between atoms: _47  and  _48
REMARK   21  A    between atoms: _47  and  _50
REMARK   22  A    between atoms: _50  and  _51
REMARK   23  A    between atoms: _54  and  _56
REMARK   24  A    between atoms: _56  and  _57
REMARK   25  A    between atoms: _59  and  _61
REMARK   26  A    between atoms: _61  and  _62
REMARK   27  A    between atoms: _65  and  _67
REMARK   28  A    between atoms: _67  and  _68
REMARK   29  A    between atoms: _67  and  _70
REMARK   30  A    between atoms: _70  and  _71
REMARK   31  A    between atoms: _74  and  _76
REMARK   32  A    between atoms: _76  and  _77
REMARK   33  A    between atoms: _76  and  _79
REMARK   34  A    between atoms: _79  and  _80
REMARK   35  A    between atoms: _83  and  _85
REMARK   36  A    between atoms: _85  and  _86
REMARK   37  A    between atoms: _85  and  _88
REMARK   38  A    between atoms: _88  and  _89
REMARK   39  A    between atoms: _92  and  _94
REMARK   40  A    between atoms: _94  and  _95
REMARK   41  A    between atoms: _94  and  _97
REMARK   42  A    between atoms: _100  and  _102
REMARK   43  A    between atoms: _102  and  _103
REMARK   44  A    between atoms: _102  and  _105
REMARK   45  A    between atoms: _105  and  _106
REMARK   46  A    between atoms: _109  and  _111
REMARK   47  A    between atoms: _111  and  _112
REMARK   48  A    between atoms: _111  and  _114
REMARK   49  A    between atoms: _115  and  _116
REMARK   50  A    between atoms: _116  and  _117
REMARK   51  A    between atoms: _117  and  _118
REMARK   52  A    between atoms: _122  and  _124
REMARK   53  A    between atoms: _124  and  _125
REMARK   54  A    between atoms: _124  and  _127
REMARK   55  A    between atoms: _127  and  _128
REMARK   56  A    between atoms: _128  and  _129
REMARK   57  A    between atoms: _131  and  _133
REMARK   58  A    between atoms: _133  and  _134
REMARK   59  A    between atoms: _133  and  _136
REMARK   60  A    between atoms: _136  and  _137
REMARK   61  A    between atoms: _140  and  _142
REMARK   62  A    between atoms: _142  and  _143
REMARK   63  A    between atoms: _142  and  _145
REMARK   64  A    between atoms: _148  and  _150
REMARK   65  A    between atoms: _150  and  _151
REMARK   66  A    between atoms: _153  and  _155
REMARK   67  A    between atoms: _155  and  _156
REMARK   68  A    between atoms: _155  and  _158
REMARK   69  A    between atoms: _158  and  _159
REMARK   70  A    between atoms: _162  and  _164
REMARK   71  A    between atoms: _164  and  _165
REMARK   72  A    between atoms: _167  and  _169
REMARK   73  A    between atoms: _169  and  _170
REMARK   74  A    between atoms: _172  and  _174
REMARK   75  A    between atoms: _174  and  _175
REMARK   76  A    between atoms: _174  and  _177
REMARK   77  A    between atoms: _177  and  _178
REMARK   78  A    between atoms: _184  and  _186
REMARK   79  A    between atoms: _186  and  _187
REMARK   80  A    between atoms: _186  and  _189
REMARK   81  A    between atoms: _189  and  _190
REMARK   82  A    between atoms: _193  and  _195
REMARK   83  A    between atoms: _195  and  _196
REMARK   84  A    between atoms: _195  and  _198
REMARK   85  A    between atoms: _201  and  _203
REMARK   86  A    between atoms: _203  and  _204
REMARK   87  A    between atoms: _203  and  _206
REMARK   88  A    between atoms: _206  and  _207
REMARK   89  A    between atoms: _211  and  _212
REMARK   90  A    between atoms: _217  and  _219
REMARK   91  A    between atoms: _219  and  _220
REMARK   92  A    between atoms: _219  and  _222
REMARK   93  A    between atoms: _222  and  _223
REMARK   94  A    between atoms: _227  and  _228
REMARK   95  A    between atoms: _233  and  _235
REMARK   96  A    between atoms: _235  and  _236
REMARK   97  A    between atoms: _235  and  _238
REMARK   98  A    between atoms: _241  and  _243
REMARK   99  A    between atoms: _243  and  _244
REMARK  100  A    between atoms: _243  and  _246
REMARK  101  A    between atoms: _246  and  _247
REMARK  102  A    between atoms: _252  and  _254
REMARK  103  A    between atoms: _254  and  _255
REMARK  104  A    between atoms: _254  and  _257
REMARK  105  A    between atoms: _257  and  _258
REMARK  106  A    between atoms: _261  and  _263
REMARK  107  A    between atoms: _263  and  _264
REMARK  108  A    between atoms: _263  and  _266
REMARK  109  A    between atoms: _266  and  _267
REMARK  110  A    between atoms: _270  and  _272
REMARK  111  A    between atoms: _272  and  _273
REMARK  112  A    between atoms: _275  and  _277
REMARK  113  A    between atoms: _277  and  _278
REMARK  114  A    between atoms: _277  and  _280
REMARK  115  A    between atoms: _280  and  _281
REMARK  116  A    between atoms: _281  and  _282
REMARK  117  A    between atoms: _282  and  _283
REMARK  118  A    between atoms: _292  and  _294
REMARK  119  A    between atoms: _294  and  _295
REMARK  120  A    between atoms: _294  and  _297
REMARK  121  A    between atoms: _297  and  _298
REMARK  122  A    between atoms: _303  and  _305
REMARK  123  A    between atoms: _305  and  _306
REMARK  124  A    between atoms: _305  and  _308
REMARK  125  A    between atoms: _308  and  _309
REMARK  126  A    between atoms: _309  and  _310
REMARK  127  A    between atoms: _310  and  _311
REMARK  128  A    between atoms: _320  and  _322
REMARK  129  A    between atoms: _322  and  _323
REMARK  130  A    between atoms: _322  and  _325
REMARK  131  A    between atoms: _325  and  _326
REMARK  132  A    between atoms: _329  and  _331
REMARK  133  A    between atoms: _331  and  _332
REMARK  134  A    between atoms: _331  and  _334
REMARK  135  A    between atoms: _334  and  _335
REMARK  136  A    between atoms: _338  and  _340
REMARK  137  A    between atoms: _340  and  _341
REMARK  138  A    between atoms: _340  and  _343
REMARK  139  A    between atoms: _343  and  _344
REMARK  140  A    between atoms: _347  and  _349
REMARK  141  A    between atoms: _349  and  _350
REMARK  142  A    between atoms: _349  and  _352
REMARK  143  A    between atoms: _352  and  _353
REMARK  144  A    between atoms: _356  and  _358
REMARK  145  A    between atoms: _358  and  _359
REMARK  146  A    between atoms: _361  and  _363
REMARK  147  A    between atoms: _363  and  _364
REMARK  148  A    between atoms: _367  and  _369
REMARK  149  A    between atoms: _369  and  _370
REMARK  150  A    between atoms: _369  and  _372
REMARK  151  A    between atoms: _372  and  _373
REMARK  152  A    between atoms: _376  and  _378
REMARK  153  A    between atoms: _378  and  _379
REMARK  154  A    between atoms: _378  and  _381
REMARK  155  A    between atoms: _381  and  _382
REMARK  156  A    between atoms: _385  and  _387
REMARK  157  A    between atoms: _387  and  _388
REMARK  158  A    between atoms: _387  and  _390
REMARK  159  A    between atoms: _390  and  _391
REMARK  160  A    between atoms: _394  and  _396
REMARK  161  A    between atoms: _396  and  _397
REMARK  162  A    between atoms: _396  and  _399
REMARK  163  A    between atoms: _402  and  _404
REMARK  164  A    between atoms: _404  and  _405
REMARK  165  A    between atoms: _404  and  _407
REMARK  166  A    between atoms: _407  and  _408
REMARK  167  A    between atoms: _408  and  _409
REMARK  168  A    between atoms: _409  and  _410
REMARK  169  A    between atoms: _410  and  _411
REMARK  170  A    between atoms: _415  and  _417
REMARK  171  A    between atoms: _417  and  _418
REMARK  172  A    between atoms: _417  and  _420
REMARK  173  A    between atoms: _420  and  _421
REMARK  174  A    between atoms: _421  and  _422
REMARK  175  A    between atoms: _424  and  _426
REMARK  176  A    between atoms: _426  and  _427
REMARK  177  A    between atoms: _426  and  _429
REMARK  178  A    between atoms: _429  and  _430
REMARK  179  A    between atoms: _433  and  _435
REMARK  180  A    between atoms: _435  and  _436
REMARK  181  A    between atoms: _435  and  _438
REMARK  182  A    between atoms: _441  and  _443
REMARK  183  A    between atoms: _443  and  _444
REMARK  184  A    between atoms: _446  and  _448
REMARK  185  A    between atoms: _448  and  _449
REMARK  186  A    between atoms: _448  and  _451
REMARK  187  A    between atoms: _451  and  _452
REMARK  188  A    between atoms: _455  and  _457
REMARK  189  A    between atoms: _457  and  _458
REMARK  190  A    between atoms: _460  and  _462
REMARK  191  A    between atoms: _462  and  _463
REMARK  192  A    between atoms: _465  and  _467
REMARK  193  A    between atoms: _467  and  _468
REMARK  194  A    between atoms: _467  and  _470
REMARK  195  A    between atoms: _470  and  _471
REMARK  196  A    between atoms: _474  and  _476
REMARK  197  A    between atoms: _476  and  _477
REMARK  198  A    between atoms: _476  and  _479
REMARK  199  A    between atoms: _479  and  _480
REMARK  200  A    between atoms: _483  and  _485
REMARK  201  A    between atoms: _485  and  _486
REMARK  202  A    between atoms: _485  and  _488
REMARK  203  A    between atoms: _488  and  _489
REMARK  204  A    between atoms: _493  and  _494
REMARK  205  A    between atoms: _499  and  _501
REMARK  206  A    between atoms: _501  and  _502
REMARK  207  A    between atoms: _501  and  _504
REMARK  208  A    between atoms: _507  and  _509
REMARK  209  A    between atoms: _509  and  _510
REMARK  210  A    between atoms: _509  and  _512
REMARK  211  A    between atoms: _512  and  _513
REMARK  212  A    between atoms: _518  and  _520
REMARK  213  A    between atoms: _520  and  _521
REMARK  214  A    between atoms: _520  and  _523
REMARK  215  A    between atoms: _523  and  _524
REMARK  216  A    between atoms: _527  and  _529
REMARK  217  A    between atoms: _529  and  _530
REMARK  218  A    between atoms: _529  and  _532
REMARK  219  A    between atoms: _532  and  _533
REMARK  220  A    between atoms: _536  and  _538
REMARK  221  A    between atoms: _538  and  _539
REMARK  222  A    between atoms: _541  and  _543
REMARK  223  A    between atoms: _543  and  _544
REMARK  224  A    between atoms: _543  and  _546
REMARK  225  A    between atoms: _546  and  _547
REMARK  226  A    between atoms: _547  and  _548
REMARK  227  A    between atoms: _548  and  _549
REMARK  228  A    between atoms: _558  and  _560
REMARK  229  A    between atoms: _560  and  _561
REMARK  230  A    between atoms: _560  and  _563
REMARK  231  A    between atoms: _563  and  _564
REMARK                            x       y       z     vdW  Elec       q    Type
REMARK                         _______ _______ _______ _____ _____    ______ ____
ROOT
ATOM      1  O   HOH     1      -5.430  12.638 -13.686  0.00  0.00    +0.000 OA
ENDROOT
TORSDOF 0
REMARK  Name = ../refined-set-2016/3cyw/3cyw_pocket.pdb
REMARK  231 active torsions:
REMARK  status: ('A' for Active; 'I' for Inactive)
REMARK    1  A    between atoms: _1  and  _3
REMARK    2  A    between atoms: _3  and  _4
REMARK    3  A    between atoms: _3  and  _6
REMARK    4  A    between atoms: _6  and  _7
REMARK    5  A    between atoms: _7  and  _8
REMARK    6  A    between atoms: _8  and  _9
REMARK    7  A    between atoms: _18  and  _20
REMARK    8  A    between atoms: _20  and  _21
REMARK    9  A    between atoms: _20  and  _23
REMARK   10  A    between atoms: _23  and  _24
REMARK   11  A    between atoms: _27  and  _29
REMARK   12  A    between atoms: _29  and  _30
REMARK   13  A    between atoms: _29  and  _32
REMARK   14  A    between atoms: _32  and  _33
REMARK   15  A    between atoms: _36  and  _38
REMARK   16  A    between atoms: _38  and  _39
REMARK   17  A    between atoms: _38  and  _41
REMARK   18  A    between atoms: _41  and  _42
REMARK   19  A    between atoms: _45  and  _47
REMARK   20  A    between atoms: _47  and  _48
REMARK   21  A    between atoms: _47  and  _50
REMARK   22  A    between atoms: _50  and  _51
REMARK   23  A    between atoms: _54  and  _56
REMARK   24  A    between atoms: _56  and  _57
REMARK   25  A    between atoms: _59  and  _61
REMARK   26  A    between atoms: _61  and  _62
REMARK   27  A    between atoms: _65  and  _67
REMARK   28  A    between atoms: _67  and  _68
REMARK   29  A    between atoms: _67  and  _70
REMARK   30  A    between atoms: _70  and  _71
REMARK   31  A    between atoms: _74  and  _76
REMARK   32  A    between atoms: _76  and  _77
REMARK   33  A    between atoms: _76  and  _79
REMARK   34  A    between atoms: _79  and  _80
REMARK   35  A    between atoms: _83  and  _85
REMARK   36  A    between atoms: _85  and  _86
REMARK   37  A    between atoms: _85  and  _88
REMARK   38  A    between atoms: _88  and  _89
REMARK   39  A    between atoms: _92  and  _94
REMARK   40  A    between atoms: _94  and  _95
REMARK   41  A    between atoms: _94  and  _97
REMARK   42  A    between atoms: _100  and  _102
REMARK   43  A    between atoms: _102  and  _103
REMARK   44  A    between atoms: _102  and  _105
REMARK   45  A    between atoms: _105  and  _106
REMARK   46  A    between atoms: _109  and  _111
REMARK   47  A    between atoms: _111  and  _112
REMARK   48  A    between atoms: _111  and  _114
REMARK   49  A    between atoms: _115  and  _116
REMARK   50  A    between atoms: _116  and  _117
REMARK   51  A    between atoms: _117  and  _118
REMARK   52  A    between atoms: _122  and  _124
REMARK   53  A    between atoms: _124  and  _125
REMARK   54  A    between atoms: _124  and  _127
REMARK   55  A    between atoms: _127  and  _128
REMARK   56  A    between atoms: _128  and  _129
REMARK   57  A    between atoms: _131  and  _133
REMARK   58  A    between atoms: _133  and  _134
REMARK   59  A    between atoms: _133  and  _136
REMARK   60  A    between atoms: _136  and  _137
REMARK   61  A    between atoms: _140  and  _142
REMARK   62  A    between atoms: _142  and  _143
REMARK   63  A    between atoms: _142  and  _145
REMARK   64  A    between atoms: _148  and  _150
REMARK   65  A    between atoms: _150  and  _151
REMARK   66  A    between atoms: _153  and  _155
REMARK   67  A    between atoms: _155  and  _156
REMARK   68  A    between atoms: _155  and  _158
REMARK   69  A    between atoms: _158  and  _159
REMARK   70  A    between atoms: _162  and  _164
REMARK   71  A    between atoms: _164  and  _165
REMARK   72  A    between atoms: _167  and  _169
REMARK   73  A    between atoms: _169  and  _170
REMARK   74  A    between atoms: _172  and  _174
REMARK   75  A    between atoms: _174  and  _175
REMARK   76  A    between atoms: _174  and  _177
REMARK   77  A    between atoms: _177  and  _178
REMARK   78  A    between atoms: _184  and  _186
REMARK   79  A    between atoms: _186  and  _187
REMARK   80  A    between atoms: _186  and  _189
REMARK   81  A    between atoms: _189  and  _190
REMARK   82  A    between atoms: _193  and  _195
REMARK   83  A    between atoms: _195  and  _196
REMARK   84  A    between atoms: _195  and  _198
REMARK   85  A    between atoms: _201  and  _203
REMARK   86  A    between atoms: _203  and  _204
REMARK   87  A    between atoms: _203  and  _206
REMARK   88  A    between atoms: _206  and  _207
REMARK   89  A    between atoms: _211  and  _212
REMARK   90  A    between atoms: _217  and  _219
REMARK   91  A    between atoms: _219  and  _220
REMARK   92  A    between atoms: _219  and  _222
REMARK   93  A    between atoms: _222  and  _223
REMARK   94  A    between atoms: _227  and  _228
REMARK   95  A    between atoms: _233  and  _235
REMARK   96  A    between atoms: _235  and  _236
REMARK   97  A    between atoms: _235  and  _238
REMARK   98  A    between atoms: _241  and  _243
REMARK   99  A    between atoms: _243  and  _244
REMARK  100  A    between atoms: _243  and  _246
REMARK  101  A    between atoms: _246  and  _247
REMARK  102  A    between atoms: _252  and  _254
REMARK  103  A    between atoms: _254  and  _255
REMARK  104  A    between atoms: _254  and  _257
REMARK  105  A    between atoms: _257  and  _258
REMARK  106  A    between atoms: _261  and  _263
REMARK  107  A    between atoms: _263  and  _264
REMARK  108  A    between atoms: _263  and  _266
REMARK  109  A    between atoms: _266  and  _267
REMARK  110  A    between atoms: _270  and  _272
REMARK  111  A    between atoms: _272  and  _273
REMARK  112  A    between atoms: _275  and  _277
REMARK  113  A    between atoms: _277  and  _278
REMARK  114  A    between atoms: _277  and  _280
REMARK  115  A    between atoms: _280  and  _281
REMARK  116  A    between atoms: _281  and  _282
REMARK  117  A    between atoms: _282  and  _283
REMARK  118  A    between atoms: _292  and  _294
REMARK  119  A    between atoms: _294  and  _295
REMARK  120  A    between atoms: _294  and  _297
REMARK  121  A    between atoms: _297  and  _298
REMARK  122  A    between atoms: _303  and  _305
REMARK  123  A    between atoms: _305  and  _306
REMARK  124  A    between atoms: _305  and  _308
REMARK  125  A    between atoms: _308  and  _309
REMARK  126  A    between atoms: _309  and  _310
REMARK  127  A    between atoms: _310  and  _311
REMARK  128  A    between atoms: _320  and  _322
REMARK  129  A    between atoms: _322  and  _323
REMARK  130  A    between atoms: _322  and  _325
REMARK  131  A    between atoms: _325  and  _326
REMARK  132  A    between atoms: _329  and  _331
REMARK  133  A    between atoms: _331  and  _332
REMARK  134  A    between atoms: _331  and  _334
REMARK  135  A    between atoms: _334  and  _335
REMARK  136  A    between atoms: _338  and  _340
REMARK  137  A    between atoms: _340  and  _341
REMARK  138  A    between atoms: _340  and  _343
REMARK  139  A    between atoms: _343  and  _344
REMARK  140  A    between atoms: _347  and  _349
REMARK  141  A    between atoms: _349  and  _350
REMARK  142  A    between atoms: _349  and  _352
REMARK  143  A    between atoms: _352  and  _353
REMARK  144  A    between atoms: _356  and  _358
REMARK  145  A    between atoms: _358  and  _359
REMARK  146  A    between atoms: _361  and  _363
REMARK  147  A    between atoms: _363  and  _364
REMARK  148  A    between atoms: _367  and  _369
REMARK  149  A    between atoms: _369  and  _370
REMARK  150  A    between atoms: _369  and  _372
REMARK  151  A    between atoms: _372  and  _373
REMARK  152  A    between atoms: _376  and  _378
REMARK  153  A    between atoms: _378  and  _379
REMARK  154  A    between atoms: _378  and  _381
REMARK  155  A    between atoms: _381  and  _382
REMARK  156  A    between atoms: _385  and  _387
REMARK  157  A    between atoms: _387  and  _388
REMARK  158  A    between atoms: _387  and  _390
REMARK  159  A    between atoms: _390  and  _391
REMARK  160  A    between atoms: _394  and  _396
REMARK  161  A    between atoms: _396  and  _397
REMARK  162  A    between atoms: _396  and  _399
REMARK  163  A    between atoms: _402  and  _404
REMARK  164  A    between atoms: _404  and  _405
REMARK  165  A    between atoms: _404  and  _407
REMARK  166  A    between atoms: _407  and  _408
REMARK  167  A    between atoms: _408  and  _409
REMARK  168  A    between atoms: _409  and  _410
REMARK  169  A    between atoms: _410  and  _411
REMARK  170  A    between atoms: _415  and  _417
REMARK  171  A    between atoms: _417  and  _418
REMARK  172  A    between atoms: _417  and  _420
REMARK  173  A    between atoms: _420  and  _421
REMARK  174  A    between atoms: _421  and  _422
REMARK  175  A    between atoms: _424  and  _426
REMARK  176  A    between atoms: _426  and  _427
REMARK  177  A    between atoms: _426  and  _429
REMARK  178  A    between atoms: _429  and  _430
REMARK  179  A    between atoms: _433  and  _435
REMARK  180  A    between atoms: _435  and  _436
REMARK  181  A    between atoms: _435  and  _438
REMARK  182  A    between atoms: _441  and  _443
REMARK  183  A    between atoms: _443  and  _444
REMARK  184  A    between atoms: _446  and  _448
REMARK  185  A    between atoms: _448  and  _449
REMARK  186  A    between atoms: _448  and  _451
REMARK  187  A    between atoms: _451  and  _452
REMARK  188  A    between atoms: _455  and  _457
REMARK  189  A    between atoms: _457  and  _458
REMARK  190  A    between atoms: _460  and  _462
REMARK  191  A    between atoms: _462  and  _463
REMARK  192  A    between atoms: _465  and  _467
REMARK  193  A    between atoms: _467  and  _468
REMARK  194  A    between atoms: _467  and  _470
REMARK  195  A    between atoms: _470  and  _471
REMARK  196  A    between atoms: _474  and  _476
REMARK  197  A    between atoms: _476  and  _477
REMARK  198  A    between atoms: _476  and  _479
REMARK  199  A    between atoms: _479  and  _480
REMARK  200  A    between atoms: _483  and  _485
REMARK  201  A    between atoms: _485  and  _486
REMARK  202  A    between atoms: _485  and  _488
REMARK  203  A    between atoms: _488  and  _489
REMARK  204  A    between atoms: _493  and  _494
REMARK  205  A    between atoms: _499  and  _501
REMARK  206  A    between atoms: _501  and  _502
REMARK  207  A    between atoms: _501  and  _504
REMARK  208  A    between atoms: _507  and  _509
REMARK  209  A    between atoms: _509  and  _510
REMARK  210  A    between atoms: _509  and  _512
REMARK  211  A    between atoms: _512  and  _513
REMARK  212  A    between atoms: _518  and  _520
REMARK  213  A    between atoms: _520  and  _521
REMARK  214  A    between atoms: _520  and  _523
REMARK  215  A    between atoms: _523  and  _524
REMARK  216  A    between atoms: _527  and  _529
REMARK  217  A    between atoms: _529  and  _530
REMARK  218  A    between atoms: _529  and  _532
REMARK  219  A    between atoms: _532  and  _533
REMARK  220  A    between atoms: _536  and  _538
REMARK  221  A    between atoms: _538  and  _539
REMARK  222  A    between atoms: _541  and  _543
REMARK  223  A    between atoms: _543  and  _544
REMARK  224  A    between atoms: _543  and  _546
REMARK  225  A    between atoms: _546  and  _547
REMARK  226  A    between atoms: _547  and  _548
REMARK  227  A    between atoms: _548  and  _549
REMARK  228  A    between atoms: _558  and  _560
REMARK  229  A    between atoms: _560  and  _561
REMARK  230  A    between atoms: _560  and  _563
REMARK  231  A    between atoms: _563  and  _564
REMARK                            x       y       z     vdW  Elec       q    Type
REMARK                         _______ _______ _______ _____ _____    ______ ____
ROOT
ATOM      1  O   HOH     1      -6.636  17.123 -17.930  0.00  0.00    +0.000 OA
ENDROOT
TORSDOF 0
REMARK  Name = ../refined-set-2016/3cyw/3cyw_pocket.pdb
REMARK  231 active torsions:
REMARK  status: ('A' for Active; 'I' for Inactive)
REMARK    1  A    between atoms: _1  and  _3
REMARK    2  A    between atoms: _3  and  _4
REMARK    3  A    between atoms: _3  and  _6
REMARK    4  A    between atoms: _6  and  _7
REMARK    5  A    between atoms: _7  and  _8
REMARK    6  A    between atoms: _8  and  _9
REMARK    7  A    between atoms: _18  and  _20
REMARK    8  A    between atoms: _20  and  _21
REMARK    9  A    between atoms: _20  and  _23
REMARK   10  A    between atoms: _23  and  _24
REMARK   11  A    between atoms: _27  and  _29
REMARK   12  A    between atoms: _29  and  _30
REMARK   13  A    between atoms: _29  and  _32
REMARK   14  A    between atoms: _32  and  _33
REMARK   15  A    between atoms: _36  and  _38
REMARK   16  A    between atoms: _38  and  _39
REMARK   17  A    between atoms: _38  and  _41
REMARK   18  A    between atoms: _41  and  _42
REMARK   19  A    between atoms: _45  and  _47
REMARK   20  A    between atoms: _47  and  _48
REMARK   21  A    between atoms: _47  and  _50
REMARK   22  A    between atoms: _50  and  _51
REMARK   23  A    between atoms: _54  and  _56
REMARK   24  A    between atoms: _56  and  _57
REMARK   25  A    between atoms: _59  and  _61
REMARK   26  A    between atoms: _61  and  _62
REMARK   27  A    between atoms: _65  and  _67
REMARK   28  A    between atoms: _67  and  _68
REMARK   29  A    between atoms: _67  and  _70
REMARK   30  A    between atoms: _70  and  _71
REMARK   31  A    between atoms: _74  and  _76
REMARK   32  A    between atoms: _76  and  _77
REMARK   33  A    between atoms: _76  and  _79
REMARK   34  A    between atoms: _79  and  _80
REMARK   35  A    between atoms: _83  and  _85
REMARK   36  A    between atoms: _85  and  _86
REMARK   37  A    between atoms: _85  and  _88
REMARK   38  A    between atoms: _88  and  _89
REMARK   39  A    between atoms: _92  and  _94
REMARK   40  A    between atoms: _94  and  _95
REMARK   41  A    between atoms: _94  and  _97
REMARK   42  A    between atoms: _100  and  _102
REMARK   43  A    between atoms: _102  and  _103
REMARK   44  A    between atoms: _102  and  _105
REMARK   45  A    between atoms: _105  and  _106
REMARK   46  A    between atoms: _109  and  _111
REMARK   47  A    between atoms: _111  and  _112
REMARK   48  A    between atoms: _111  and  _114
REMARK   49  A    between atoms: _115  and  _116
REMARK   50  A    between atoms: _116  and  _117
REMARK   51  A    between atoms: _117  and  _118
REMARK   52  A    between atoms: _122  and  _124
REMARK   53  A    between atoms: _124  and  _125
REMARK   54  A    between atoms: _124  and  _127
REMARK   55  A    between atoms: _127  and  _128
REMARK   56  A    between atoms: _128  and  _129
REMARK   57  A    between atoms: _131  and  _133
REMARK   58  A    between atoms: _133  and  _134
REMARK   59  A    between atoms: _133  and  _136
REMARK   60  A    between atoms: _136  and  _137
REMARK   61  A    between atoms: _140  and  _142
REMARK   62  A    between atoms: _142  and  _143
REMARK   63  A    between atoms: _142  and  _145
REMARK   64  A    between atoms: _148  and  _150
REMARK   65  A    between atoms: _150  and  _151
REMARK   66  A    between atoms: _153  and  _155
REMARK   67  A    between atoms: _155  and  _156
REMARK   68  A    between atoms: _155  and  _158
REMARK   69  A    between atoms: _158  and  _159
REMARK   70  A    between atoms: _162  and  _164
REMARK   71  A    between atoms: _164  and  _165
REMARK   72  A    between atoms: _167  and  _169
REMARK   73  A    between atoms: _169  and  _170
REMARK   74  A    between atoms: _172  and  _174
REMARK   75  A    between atoms: _174  and  _175
REMARK   76  A    between atoms: _174  and  _177
REMARK   77  A    between atoms: _177  and  _178
REMARK   78  A    between atoms: _184  and  _186
REMARK   79  A    between atoms: _186  and  _187
REMARK   80  A    between atoms: _186  and  _189
REMARK   81  A    between atoms: _189  and  _190
REMARK   82  A    between atoms: _193  and  _195
REMARK   83  A    between atoms: _195  and  _196
REMARK   84  A    between atoms: _195  and  _198
REMARK   85  A    between atoms: _201  and  _203
REMARK   86  A    between atoms: _203  and  _204
REMARK   87  A    between atoms: _203  and  _206
REMARK   88  A    between atoms: _206  and  _207
REMARK   89  A    between atoms: _211  and  _212
REMARK   90  A    between atoms: _217  and  _219
REMARK   91  A    between atoms: _219  and  _220
REMARK   92  A    between atoms: _219  and  _222
REMARK   93  A    between atoms: _222  and  _223
REMARK   94  A    between atoms: _227  and  _228
REMARK   95  A    between atoms: _233  and  _235
REMARK   96  A    between atoms: _235  and  _236
REMARK   97  A    between atoms: _235  and  _238
REMARK   98  A    between atoms: _241  and  _243
REMARK   99  A    between atoms: _243  and  _244
REMARK  100  A    between atoms: _243  and  _246
REMARK  101  A    between atoms: _246  and  _247
REMARK  102  A    between atoms: _252  and  _254
REMARK  103  A    between atoms: _254  and  _255
REMARK  104  A    between atoms: _254  and  _257
REMARK  105  A    between atoms: _257  and  _258
REMARK  106  A    between atoms: _261  and  _263
REMARK  107  A    between atoms: _263  and  _264
REMARK  108  A    between atoms: _263  and  _266
REMARK  109  A    between atoms: _266  and  _267
REMARK  110  A    between atoms: _270  and  _272
REMARK  111  A    between atoms: _272  and  _273
REMARK  112  A    between atoms: _275  and  _277
REMARK  113  A    between atoms: _277  and  _278
REMARK  114  A    between atoms: _277  and  _280
REMARK  115  A    between atoms: _280  and  _281
REMARK  116  A    between atoms: _281  and  _282
REMARK  117  A    between atoms: _282  and  _283
REMARK  118  A    between atoms: _292  and  _294
REMARK  119  A    between atoms: _294  and  _295
REMARK  120  A    between atoms: _294  and  _297
REMARK  121  A    between atoms: _297  and  _298
REMARK  122  A    between atoms: _303  and  _305
REMARK  123  A    between atoms: _305  and  _306
REMARK  124  A    between atoms: _305  and  _308
REMARK  125  A    between atoms: _308  and  _309
REMARK  126  A    between atoms: _309  and  _310
REMARK  127  A    between atoms: _310  and  _311
REMARK  128  A    between atoms: _320  and  _322
REMARK  129  A    between atoms: _322  and  _323
REMARK  130  A    between atoms: _322  and  _325
REMARK  131  A    between atoms: _325  and  _326
REMARK  132  A    between atoms: _329  and  _331
REMARK  133  A    between atoms: _331  and  _332
REMARK  134  A    between atoms: _331  and  _334
REMARK  135  A    between atoms: _334  and  _335
REMARK  136  A    between atoms: _338  and  _340
REMARK  137  A    between atoms: _340  and  _341
REMARK  138  A    between atoms: _340  and  _343
REMARK  139  A    between atoms: _343  and  _344
REMARK  140  A    between atoms: _347  and  _349
REMARK  141  A    between atoms: _349  and  _350
REMARK  142  A    between atoms: _349  and  _352
REMARK  143  A    between atoms: _352  and  _353
REMARK  144  A    between atoms: _356  and  _358
REMARK  145  A    between atoms: _358  and  _359
REMARK  146  A    between atoms: _361  and  _363
REMARK  147  A    between atoms: _363  and  _364
REMARK  148  A    between atoms: _367  and  _369
REMARK  149  A    between atoms: _369  and  _370
REMARK  150  A    between atoms: _369  and  _372
REMARK  151  A    between atoms: _372  and  _373
REMARK  152  A    between atoms: _376  and  _378
REMARK  153  A    between atoms: _378  and  _379
REMARK  154  A    between atoms: _378  and  _381
REMARK  155  A    between atoms: _381  and  _382
REMARK  156  A    between atoms: _385  and  _387
REMARK  157  A    between atoms: _387  and  _388
REMARK  158  A    between atoms: _387  and  _390
REMARK  159  A    between atoms: _390  and  _391
REMARK  160  A    between atoms: _394  and  _396
REMARK  161  A    between atoms: _396  and  _397
REMARK  162  A    between atoms: _396  and  _399
REMARK  163  A    between atoms: _402  and  _404
REMARK  164  A    between atoms: _404  and  _405
REMARK  165  A    between atoms: _404  and  _407
REMARK  166  A    between atoms: _407  and  _408
REMARK  167  A    between atoms: _408  and  _409
REMARK  168  A    between atoms: _409  and  _410
REMARK  169  A    between atoms: _410  and  _411
REMARK  170  A    between atoms: _415  and  _417
REMARK  171  A    between atoms: _417  and  _418
REMARK  172  A    between atoms: _417  and  _420
REMARK  173  A    between atoms: _420  and  _421
REMARK  174  A    between atoms: _421  and  _422
REMARK  175  A    between atoms: _424  and  _426
REMARK  176  A    between atoms: _426  and  _427
REMARK  177  A    between atoms: _426  and  _429
REMARK  178  A    between atoms: _429  and  _430
REMARK  179  A    between atoms: _433  and  _435
REMARK  180  A    between atoms: _435  and  _436
REMARK  181  A    between atoms: _435  and  _438
REMARK  182  A    between atoms: _441  and  _443
REMARK  183  A    between atoms: _443  and  _444
REMARK  184  A    between atoms: _446  and  _448
REMARK  185  A    between atoms: _448  and  _449
REMARK  186  A    between atoms: _448  and  _451
REMARK  187  A    between atoms: _451  and  _452
REMARK  188  A    between atoms: _455  and  _457
REMARK  189  A    between atoms: _457  and  _458
REMARK  190  A    between atoms: _460  and  _462
REMARK  191  A    between atoms: _462  and  _463
REMARK  192  A    between atoms: _465  and  _467
REMARK  193  A    between atoms: _467  and  _468
REMARK  194  A    between atoms: _467  and  _470
REMARK  195  A    between atoms: _470  and  _471
REMARK  196  A    between atoms: _474  and  _476
REMARK  197  A    between atoms: _476  and  _477
REMARK  198  A    between atoms: _476  and  _479
REMARK  199  A    between atoms: _479  and  _480
REMARK  200  A    between atoms: _483  and  _485
REMARK  201  A    between atoms: _485  and  _486
REMARK  202  A    between atoms: _485  and  _488
REMARK  203  A    between atoms: _488  and  _489
REMARK  204  A    between atoms: _493  and  _494
REMARK  205  A    between atoms: _499  and  _501
REMARK  206  A    between atoms: _501  and  _502
REMARK  207  A    between atoms: _501  and  _504
REMARK  208  A    between atoms: _507  and  _509
REMARK  209  A    between atoms: _509  and  _510
REMARK  210  A    between atoms: _509  and  _512
REMARK  211  A    between atoms: _512  and  _513
REMARK  212  A    between atoms: _518  and  _520
REMARK  213  A    between atoms: _520  and  _521
REMARK  214  A    between atoms: _520  and  _523
REMARK  215  A    between atoms: _523  and  _524
REMARK  216  A    between atoms: _527  and  _529
REMARK  217  A    between atoms: _529  and  _530
REMARK  218  A    between atoms: _529  and  _532
REMARK  219  A    between atoms: _532  and  _533
REMARK  220  A    between atoms: _536  and  _538
REMARK  221  A    between atoms: _538  and  _539
REMARK  222  A    between atoms: _541  and  _543
REMARK  223  A    between atoms: _543  and  _544
REMARK  224  A    between atoms: _543  and  _546
REMARK  225  A    between atoms: _546  and  _547
REMARK  226  A    between atoms: _547  and  _548
REMARK  227  A    between atoms: _548  and  _549
REMARK  228  A    between atoms: _558  and  _560
REMARK  229  A    between atoms: _560  and  _561
REMARK  230  A    between atoms: _560  and  _563
REMARK  231  A    between atoms: _563  and  _564
REMARK                            x       y       z     vdW  Elec       q    Type
REMARK                         _______ _______ _______ _____ _____    ______ ____
ROOT
ATOM      1  O   HOH     1      -6.865  15.932 -25.171  0.00  0.00    +0.000 OA
ENDROOT
TORSDOF 0
REMARK  Name = ../refined-set-2016/3cyw/3cyw_pocket.pdb
REMARK  231 active torsions:
REMARK  status: ('A' for Active; 'I' for Inactive)
REMARK    1  A    between atoms: _1  and  _3
REMARK    2  A    between atoms: _3  and  _4
REMARK    3  A    between atoms: _3  and  _6
REMARK    4  A    between atoms: _6  and  _7
REMARK    5  A    between atoms: _7  and  _8
REMARK    6  A    between atoms: _8  and  _9
REMARK    7  A    between atoms: _18  and  _20
REMARK    8  A    between atoms: _20  and  _21
REMARK    9  A    between atoms: _20  and  _23
REMARK   10  A    between atoms: _23  and  _24
REMARK   11  A    between atoms: _27  and  _29
REMARK   12  A    between atoms: _29  and  _30
REMARK   13  A    between atoms: _29  and  _32
REMARK   14  A    between atoms: _32  and  _33
REMARK   15  A    between atoms: _36  and  _38
REMARK   16  A    between atoms: _38  and  _39
REMARK   17  A    between atoms: _38  and  _41
REMARK   18  A    between atoms: _41  and  _42
REMARK   19  A    between atoms: _45  and  _47
REMARK   20  A    between atoms: _47  and  _48
REMARK   21  A    between atoms: _47  and  _50
REMARK   22  A    between atoms: _50  and  _51
REMARK   23  A    between atoms: _54  and  _56
REMARK   24  A    between atoms: _56  and  _57
REMARK   25  A    between atoms: _59  and  _61
REMARK   26  A    between atoms: _61  and  _62
REMARK   27  A    between atoms: _65  and  _67
REMARK   28  A    between atoms: _67  and  _68
REMARK   29  A    between atoms: _67  and  _70
REMARK   30  A    between atoms: _70  and  _71
REMARK   31  A    between atoms: _74  and  _76
REMARK   32  A    between atoms: _76  and  _77
REMARK   33  A    between atoms: _76  and  _79
REMARK   34  A    between atoms: _79  and  _80
REMARK   35  A    between atoms: _83  and  _85
REMARK   36  A    between atoms: _85  and  _86
REMARK   37  A    between atoms: _85  and  _88
REMARK   38  A    between atoms: _88  and  _89
REMARK   39  A    between atoms: _92  and  _94
REMARK   40  A    between atoms: _94  and  _95
REMARK   41  A    between atoms: _94  and  _97
REMARK   42  A    between atoms: _100  and  _102
REMARK   43  A    between atoms: _102  and  _103
REMARK   44  A    between atoms: _102  and  _105
REMARK   45  A    between atoms: _105  and  _106
REMARK   46  A    between atoms: _109  and  _111
REMARK   47  A    between atoms: _111  and  _112
REMARK   48  A    between atoms: _111  and  _114
REMARK   49  A    between atoms: _115  and  _116
REMARK   50  A    between atoms: _116  and  _117
REMARK   51  A    between atoms: _117  and  _118
REMARK   52  A    between atoms: _122  and  _124
REMARK   53  A    between atoms: _124  and  _125
REMARK   54  A    between atoms: _124  and  _127
REMARK   55  A    between atoms: _127  and  _128
REMARK   56  A    between atoms: _128  and  _129
REMARK   57  A    between atoms: _131  and  _133
REMARK   58  A    between atoms: _133  and  _134
REMARK   59  A    between atoms: _133  and  _136
REMARK   60  A    between atoms: _136  and  _137
REMARK   61  A    between atoms: _140  and  _142
REMARK   62  A    between atoms: _142  and  _143
REMARK   63  A    between atoms: _142  and  _145
REMARK   64  A    between atoms: _148  and  _150
REMARK   65  A    between atoms: _150  and  _151
REMARK   66  A    between atoms: _153  and  _155
REMARK   67  A    between atoms: _155  and  _156
REMARK   68  A    between atoms: _155  and  _158
REMARK   69  A    between atoms: _158  and  _159
REMARK   70  A    between atoms: _162  and  _164
REMARK   71  A    between atoms: _164  and  _165
REMARK   72  A    between atoms: _167  and  _169
REMARK   73  A    between atoms: _169  and  _170
REMARK   74  A    between atoms: _172  and  _174
REMARK   75  A    between atoms: _174  and  _175
REMARK   76  A    between atoms: _174  and  _177
REMARK   77  A    between atoms: _177  and  _178
REMARK   78  A    between atoms: _184  and  _186
REMARK   79  A    between atoms: _186  and  _187
REMARK   80  A    between atoms: _186  and  _189
REMARK   81  A    between atoms: _189  and  _190
REMARK   82  A    between atoms: _193  and  _195
REMARK   83  A    between atoms: _195  and  _196
REMARK   84  A    between atoms: _195  and  _198
REMARK   85  A    between atoms: _201  and  _203
REMARK   86  A    between atoms: _203  and  _204
REMARK   87  A    between atoms: _203  and  _206
REMARK   88  A    between atoms: _206  and  _207
REMARK   89  A    between atoms: _211  and  _212
REMARK   90  A    between atoms: _217  and  _219
REMARK   91  A    between atoms: _219  and  _220
REMARK   92  A    between atoms: _219  and  _222
REMARK   93  A    between atoms: _222  and  _223
REMARK   94  A    between atoms: _227  and  _228
REMARK   95  A    between atoms: _233  and  _235
REMARK   96  A    between atoms: _235  and  _236
REMARK   97  A    between atoms: _235  and  _238
REMARK   98  A    between atoms: _241  and  _243
REMARK   99  A    between atoms: _243  and  _244
REMARK  100  A    between atoms: _243  and  _246
REMARK  101  A    between atoms: _246  and  _247
REMARK  102  A    between atoms: _252  and  _254
REMARK  103  A    between atoms: _254  and  _255
REMARK  104  A    between atoms: _254  and  _257
REMARK  105  A    between atoms: _257  and  _258
REMARK  106  A    between atoms: _261  and  _263
REMARK  107  A    between atoms: _263  and  _264
REMARK  108  A    between atoms: _263  and  _266
REMARK  109  A    between atoms: _266  and  _267
REMARK  110  A    between atoms: _270  and  _272
REMARK  111  A    between atoms: _272  and  _273
REMARK  112  A    between atoms: _275  and  _277
REMARK  113  A    between atoms: _277  and  _278
REMARK  114  A    between atoms: _277  and  _280
REMARK  115  A    between atoms: _280  and  _281
REMARK  116  A    between atoms: _281  and  _282
REMARK  117  A    between atoms: _282  and  _283
REMARK  118  A    between atoms: _292  and  _294
REMARK  119  A    between atoms: _294  and  _295
REMARK  120  A    between atoms: _294  and  _297
REMARK  121  A    between atoms: _297  and  _298
REMARK  122  A    between atoms: _303  and  _305
REMARK  123  A    between atoms: _305  and  _306
REMARK  124  A    between atoms: _305  and  _308
REMARK  125  A    between atoms: _308  and  _309
REMARK  126  A    between atoms: _309  and  _310
REMARK  127  A    between atoms: _310  and  _311
REMARK  128  A    between atoms: _320  and  _322
REMARK  129  A    between atoms: _322  and  _323
REMARK  130  A    between atoms: _322  and  _325
REMARK  131  A    between atoms: _325  and  _326
REMARK  132  A    between atoms: _329  and  _331
REMARK  133  A    between atoms: _331  and  _332
REMARK  134  A    between atoms: _331  and  _334
REMARK  135  A    between atoms: _334  and  _335
REMARK  136  A    between atoms: _338  and  _340
REMARK  137  A    between atoms: _340  and  _341
REMARK  138  A    between atoms: _340  and  _343
REMARK  139  A    between atoms: _343  and  _344
REMARK  140  A    between atoms: _347  and  _349
REMARK  141  A    between atoms: _349  and  _350
REMARK  142  A    between atoms: _349  and  _352
REMARK  143  A    between atoms: _352  and  _353
REMARK  144  A    between atoms: _356  and  _358
REMARK  145  A    between atoms: _358  and  _359
REMARK  146  A    between atoms: _361  and  _363
REMARK  147  A    between atoms: _363  and  _364
REMARK  148  A    between atoms: _367  and  _369
REMARK  149  A    between atoms: _369  and  _370
REMARK  150  A    between atoms: _369  and  _372
REMARK  151  A    between atoms: _372  and  _373
REMARK  152  A    between atoms: _376  and  _378
REMARK  153  A    between atoms: _378  and  _379
REMARK  154  A    between atoms: _378  and  _381
REMARK  155  A    between atoms: _381  and  _382
REMARK  156  A    between atoms: _385  and  _387
REMARK  157  A    between atoms: _387  and  _388
REMARK  158  A    between atoms: _387  and  _390
REMARK  159  A    between atoms: _390  and  _391
REMARK  160  A    between atoms: _394  and  _396
REMARK  161  A    between atoms: _396  and  _397
REMARK  162  A    between atoms: _396  and  _399
REMARK  163  A    between atoms: _402  and  _404
REMARK  164  A    between atoms: _404  and  _405
REMARK  165  A    between atoms: _404  and  _407
REMARK  166  A    between atoms: _407  and  _408
REMARK  167  A    between atoms: _408  and  _409
REMARK  168  A    between atoms: _409  and  _410
REMARK  169  A    between atoms: _410  and  _411
REMARK  170  A    between atoms: _415  and  _417
REMARK  171  A    between atoms: _417  and  _418
REMARK  172  A    between atoms: _417  and  _420
REMARK  173  A    between atoms: _420  and  _421
REMARK  174  A    between atoms: _421  and  _422
REMARK  175  A    between atoms: _424  and  _426
REMARK  176  A    between atoms: _426  and  _427
REMARK  177  A    between atoms: _426  and  _429
REMARK  178  A    between atoms: _429  and  _430
REMARK  179  A    between atoms: _433  and  _435
REMARK  180  A    between atoms: _435  and  _436
REMARK  181  A    between atoms: _435  and  _438
REMARK  182  A    between atoms: _441  and  _443
REMARK  183  A    between atoms: _443  and  _444
REMARK  184  A    between atoms: _446  and  _448
REMARK  185  A    between atoms: _448  and  _449
REMARK  186  A    between atoms: _448  and  _451
REMARK  187  A    between atoms: _451  and  _452
REMARK  188  A    between atoms: _455  and  _457
REMARK  189  A    between atoms: _457  and  _458
REMARK  190  A    between atoms: _460  and  _462
REMARK  191  A    between atoms: _462  and  _463
REMARK  192  A    between atoms: _465  and  _467
REMARK  193  A    between atoms: _467  and  _468
REMARK  194  A    between atoms: _467  and  _470
REMARK  195  A    between atoms: _470  and  _471
REMARK  196  A    between atoms: _474  and  _476
REMARK  197  A    between atoms: _476  and  _477
REMARK  198  A    between atoms: _476  and  _479
REMARK  199  A    between atoms: _479  and  _480
REMARK  200  A    between atoms: _483  and  _485
REMARK  201  A    between atoms: _485  and  _486
REMARK  202  A    between atoms: _485  and  _488
REMARK  203  A    between atoms: _488  and  _489
REMARK  204  A    between atoms: _493  and  _494
REMARK  205  A    between atoms: _499  and  _501
REMARK  206  A    between atoms: _501  and  _502
REMARK  207  A    between atoms: _501  and  _504
REMARK  208  A    between atoms: _507  and  _509
REMARK  209  A    between atoms: _509  and  _510
REMARK  210  A    between atoms: _509  and  _512
REMARK  211  A    between atoms: _512  and  _513
REMARK  212  A    between atoms: _518  and  _520
REMARK  213  A    between atoms: _520  and  _521
REMARK  214  A    between atoms: _520  and  _523
REMARK  215  A    between atoms: _523  and  _524
REMARK  216  A    between atoms: _527  and  _529
REMARK  217  A    between atoms: _529  and  _530
REMARK  218  A    between atoms: _529  and  _532
REMARK  219  A    between atoms: _532  and  _533
REMARK  220  A    between atoms: _536  and  _538
REMARK  221  A    between atoms: _538  and  _539
REMARK  222  A    between atoms: _541  and  _543
REMARK  223  A    between atoms: _543  and  _544
REMARK  224  A    between atoms: _543  and  _546
REMARK  225  A    between atoms: _546  and  _547
REMARK  226  A    between atoms: _547  and  _548
REMARK  227  A    between atoms: _548  and  _549
REMARK  228  A    between atoms: _558  and  _560
REMARK  229  A    between atoms: _560  and  _561
REMARK  230  A    between atoms: _560  and  _563
REMARK  231  A    between atoms: _563  and  _564
REMARK                            x       y       z     vdW  Elec       q    Type
REMARK                         _______ _______ _______ _____ _____    ______ ____
ROOT
ATOM      1  O   HOH     1     -18.651  28.094 -16.637  0.00  0.00    +0.000 OA
ENDROOT
TORSDOF 0
REMARK  Name = ../refined-set-2016/3cyw/3cyw_pocket.pdb
REMARK  231 active torsions:
REMARK  status: ('A' for Active; 'I' for Inactive)
REMARK    1  A    between atoms: _1  and  _3
REMARK    2  A    between atoms: _3  and  _4
REMARK    3  A    between atoms: _3  and  _6
REMARK    4  A    between atoms: _6  and  _7
REMARK    5  A    between atoms: _7  and  _8
REMARK    6  A    between atoms: _8  and  _9
REMARK    7  A    between atoms: _18  and  _20
REMARK    8  A    between atoms: _20  and  _21
REMARK    9  A    between atoms: _20  and  _23
REMARK   10  A    between atoms: _23  and  _24
REMARK   11  A    between atoms: _27  and  _29
REMARK   12  A    between atoms: _29  and  _30
REMARK   13  A    between atoms: _29  and  _32
REMARK   14  A    between atoms: _32  and  _33
REMARK   15  A    between atoms: _36  and  _38
REMARK   16  A    between atoms: _38  and  _39
REMARK   17  A    between atoms: _38  and  _41
REMARK   18  A    between atoms: _41  and  _42
REMARK   19  A    between atoms: _45  and  _47
REMARK   20  A    between atoms: _47  and  _48
REMARK   21  A    between atoms: _47  and  _50
REMARK   22  A    between atoms: _50  and  _51
REMARK   23  A    between atoms: _54  and  _56
REMARK   24  A    between atoms: _56  and  _57
REMARK   25  A    between atoms: _59  and  _61
REMARK   26  A    between atoms: _61  and  _62
REMARK   27  A    between atoms: _65  and  _67
REMARK   28  A    between atoms: _67  and  _68
REMARK   29  A    between atoms: _67  and  _70
REMARK   30  A    between atoms: _70  and  _71
REMARK   31  A    between atoms: _74  and  _76
REMARK   32  A    between atoms: _76  and  _77
REMARK   33  A    between atoms: _76  and  _79
REMARK   34  A    between atoms: _79  and  _80
REMARK   35  A    between atoms: _83  and  _85
REMARK   36  A    between atoms: _85  and  _86
REMARK   37  A    between atoms: _85  and  _88
REMARK   38  A    between atoms: _88  and  _89
REMARK   39  A    between atoms: _92  and  _94
REMARK   40  A    between atoms: _94  and  _95
REMARK   41  A    between atoms: _94  and  _97
REMARK   42  A    between atoms: _100  and  _102
REMARK   43  A    between atoms: _102  and  _103
REMARK   44  A    between atoms: _102  and  _105
REMARK   45  A    between atoms: _105  and  _106
REMARK   46  A    between atoms: _109  and  _111
REMARK   47  A    between atoms: _111  and  _112
REMARK   48  A    between atoms: _111  and  _114
REMARK   49  A    between atoms: _115  and  _116
REMARK   50  A    between atoms: _116  and  _117
REMARK   51  A    between atoms: _117  and  _118
REMARK   52  A    between atoms: _122  and  _124
REMARK   53  A    between atoms: _124  and  _125
REMARK   54  A    between atoms: _124  and  _127
REMARK   55  A    between atoms: _127  and  _128
REMARK   56  A    between atoms: _128  and  _129
REMARK   57  A    between atoms: _131  and  _133
REMARK   58  A    between atoms: _133  and  _134
REMARK   59  A    between atoms: _133  and  _136
REMARK   60  A    between atoms: _136  and  _137
REMARK   61  A    between atoms: _140  and  _142
REMARK   62  A    between atoms: _142  and  _143
REMARK   63  A    between atoms: _142  and  _145
REMARK   64  A    between atoms: _148  and  _150
REMARK   65  A    between atoms: _150  and  _151
REMARK   66  A    between atoms: _153  and  _155
REMARK   67  A    between atoms: _155  and  _156
REMARK   68  A    between atoms: _155  and  _158
REMARK   69  A    between atoms: _158  and  _159
REMARK   70  A    between atoms: _162  and  _164
REMARK   71  A    between atoms: _164  and  _165
REMARK   72  A    between atoms: _167  and  _169
REMARK   73  A    between atoms: _169  and  _170
REMARK   74  A    between atoms: _172  and  _174
REMARK   75  A    between atoms: _174  and  _175
REMARK   76  A    between atoms: _174  and  _177
REMARK   77  A    between atoms: _177  and  _178
REMARK   78  A    between atoms: _184  and  _186
REMARK   79  A    between atoms: _186  and  _187
REMARK   80  A    between atoms: _186  and  _189
REMARK   81  A    between atoms: _189  and  _190
REMARK   82  A    between atoms: _193  and  _195
REMARK   83  A    between atoms: _195  and  _196
REMARK   84  A    between atoms: _195  and  _198
REMARK   85  A    between atoms: _201  and  _203
REMARK   86  A    between atoms: _203  and  _204
REMARK   87  A    between atoms: _203  and  _206
REMARK   88  A    between atoms: _206  and  _207
REMARK   89  A    between atoms: _211  and  _212
REMARK   90  A    between atoms: _217  and  _219
REMARK   91  A    between atoms: _219  and  _220
REMARK   92  A    between atoms: _219  and  _222
REMARK   93  A    between atoms: _222  and  _223
REMARK   94  A    between atoms: _227  and  _228
REMARK   95  A    between atoms: _233  and  _235
REMARK   96  A    between atoms: _235  and  _236
REMARK   97  A    between atoms: _235  and  _238
REMARK   98  A    between atoms: _241  and  _243
REMARK   99  A    between atoms: _243  and  _244
REMARK  100  A    between atoms: _243  and  _246
REMARK  101  A    between atoms: _246  and  _247
REMARK  102  A    between atoms: _252  and  _254
REMARK  103  A    between atoms: _254  and  _255
REMARK  104  A    between atoms: _254  and  _257
REMARK  105  A    between atoms: _257  and  _258
REMARK  106  A    between atoms: _261  and  _263
REMARK  107  A    between atoms: _263  and  _264
REMARK  108  A    between atoms: _263  and  _266
REMARK  109  A    between atoms: _266  and  _267
REMARK  110  A    between atoms: _270  and  _272
REMARK  111  A    between atoms: _272  and  _273
REMARK  112  A    between atoms: _275  and  _277
REMARK  113  A    between atoms: _277  and  _278
REMARK  114  A    between atoms: _277  and  _280
REMARK  115  A    between atoms: _280  and  _281
REMARK  116  A    between atoms: _281  and  _282
REMARK  117  A    between atoms: _282  and  _283
REMARK  118  A    between atoms: _292  and  _294
REMARK  119  A    between atoms: _294  and  _295
REMARK  120  A    between atoms: _294  and  _297
REMARK  121  A    between atoms: _297  and  _298
REMARK  122  A    between atoms: _303  and  _305
REMARK  123  A    between atoms: _305  and  _306
REMARK  124  A    between atoms: _305  and  _308
REMARK  125  A    between atoms: _308  and  _309
REMARK  126  A    between atoms: _309  and  _310
REMARK  127  A    between atoms: _310  and  _311
REMARK  128  A    between atoms: _320  and  _322
REMARK  129  A    between atoms: _322  and  _323
REMARK  130  A    between atoms: _322  and  _325
REMARK  131  A    between atoms: _325  and  _326
REMARK  132  A    between atoms: _329  and  _331
REMARK  133  A    between atoms: _331  and  _332
REMARK  134  A    between atoms: _331  and  _334
REMARK  135  A    between atoms: _334  and  _335
REMARK  136  A    between atoms: _338  and  _340
REMARK  137  A    between atoms: _340  and  _341
REMARK  138  A    between atoms: _340  and  _343
REMARK  139  A    between atoms: _343  and  _344
REMARK  140  A    between atoms: _347  and  _349
REMARK  141  A    between atoms: _349  and  _350
REMARK  142  A    between atoms: _349  and  _352
REMARK  143  A    between atoms: _352  and  _353
REMARK  144  A    between atoms: _356  and  _358
REMARK  145  A    between atoms: _358  and  _359
REMARK  146  A    between atoms: _361  and  _363
REMARK  147  A    between atoms: _363  and  _364
REMARK  148  A    between atoms: _367  and  _369
REMARK  149  A    between atoms: _369  and  _370
REMARK  150  A    between atoms: _369  and  _372
REMARK  151  A    between atoms: _372  and  _373
REMARK  152  A    between atoms: _376  and  _378
REMARK  153  A    between atoms: _378  and  _379
REMARK  154  A    between atoms: _378  and  _381
REMARK  155  A    between atoms: _381  and  _382
REMARK  156  A    between atoms: _385  and  _387
REMARK  157  A    between atoms: _387  and  _388
REMARK  158  A    between atoms: _387  and  _390
REMARK  159  A    between atoms: _390  and  _391
REMARK  160  A    between atoms: _394  and  _396
REMARK  161  A    between atoms: _396  and  _397
REMARK  162  A    between atoms: _396  and  _399
REMARK  163  A    between atoms: _402  and  _404
REMARK  164  A    between atoms: _404  and  _405
REMARK  165  A    between atoms: _404  and  _407
REMARK  166  A    between atoms: _407  and  _408
REMARK  167  A    between atoms: _408  and  _409
REMARK  168  A    between atoms: _409  and  _410
REMARK  169  A    between atoms: _410  and  _411
REMARK  170  A    between atoms: _415  and  _417
REMARK  171  A    between atoms: _417  and  _418
REMARK  172  A    between atoms: _417  and  _420
REMARK  173  A    between atoms: _420  and  _421
REMARK  174  A    between atoms: _421  and  _422
REMARK  175  A    between atoms: _424  and  _426
REMARK  176  A    between atoms: _426  and  _427
REMARK  177  A    between atoms: _426  and  _429
REMARK  178  A    between atoms: _429  and  _430
REMARK  179  A    between atoms: _433  and  _435
REMARK  180  A    between atoms: _435  and  _436
REMARK  181  A    between atoms: _435  and  _438
REMARK  182  A    between atoms: _441  and  _443
REMARK  183  A    between atoms: _443  and  _444
REMARK  184  A    between atoms: _446  and  _448
REMARK  185  A    between atoms: _448  and  _449
REMARK  186  A    between atoms: _448  and  _451
REMARK  187  A    between atoms: _451  and  _452
REMARK  188  A    between atoms: _455  and  _457
REMARK  189  A    between atoms: _457  and  _458
REMARK  190  A    between atoms: _460  and  _462
REMARK  191  A    between atoms: _462  and  _463
REMARK  192  A    between atoms: _465  and  _467
REMARK  193  A    between atoms: _467  and  _468
REMARK  194  A    between atoms: _467  and  _470
REMARK  195  A    between atoms: _470  and  _471
REMARK  196  A    between atoms: _474  and  _476
REMARK  197  A    between atoms: _476  and  _477
REMARK  198  A    between atoms: _476  and  _479
REMARK  199  A    between atoms: _479  and  _480
REMARK  200  A    between atoms: _483  and  _485
REMARK  201  A    between atoms: _485  and  _486
REMARK  202  A    between atoms: _485  and  _488
REMARK  203  A    between atoms: _488  and  _489
REMARK  204  A    between atoms: _493  and  _494
REMARK  205  A    between atoms: _499  and  _501
REMARK  206  A    between atoms: _501  and  _502
REMARK  207  A    between atoms: _501  and  _504
REMARK  208  A    between atoms: _507  and  _509
REMARK  209  A    between atoms: _509  and  _510
REMARK  210  A    between atoms: _509  and  _512
REMARK  211  A    between atoms: _512  and  _513
REMARK  212  A    between atoms: _518  and  _520
REMARK  213  A    between atoms: _520  and  _521
REMARK  214  A    between atoms: _520  and  _523
REMARK  215  A    between atoms: _523  and  _524
REMARK  216  A    between atoms: _527  and  _529
REMARK  217  A    between atoms: _529  and  _530
REMARK  218  A    between atoms: _529  and  _532
REMARK  219  A    between atoms: _532  and  _533
REMARK  220  A    between atoms: _536  and  _538
REMARK  221  A    between atoms: _538  and  _539
REMARK  222  A    between atoms: _541  and  _543
REMARK  223  A    between atoms: _543  and  _544
REMARK  224  A    between atoms: _543  and  _546
REMARK  225  A    between atoms: _546  and  _547
REMARK  226  A    between atoms: _547  and  _548
REMARK  227  A    between atoms: _548  and  _549
REMARK  228  A    between atoms: _558  and  _560
REMARK  229  A    between atoms: _560  and  _561
REMARK  230  A    between atoms: _560  and  _563
REMARK  231  A    between atoms: _563  and  _564
REMARK                            x       y       z     vdW  Elec       q    Type
REMARK                         _______ _______ _______ _____ _____    ______ ____
ROOT
ATOM      1  O   HOH     1     -20.661  20.672 -16.417  0.00  0.00    +0.000 OA
ENDROOT
TORSDOF 0
REMARK  Name = ../refined-set-2016/3cyw/3cyw_pocket.pdb
REMARK  231 active torsions:
REMARK  status: ('A' for Active; 'I' for Inactive)
REMARK    1  A    between atoms: _1  and  _3
REMARK    2  A    between atoms: _3  and  _4
REMARK    3  A    between atoms: _3  and  _6
REMARK    4  A    between atoms: _6  and  _7
REMARK    5  A    between atoms: _7  and  _8
REMARK    6  A    between atoms: _8  and  _9
REMARK    7  A    between atoms: _18  and  _20
REMARK    8  A    between atoms: _20  and  _21
REMARK    9  A    between atoms: _20  and  _23
REMARK   10  A    between atoms: _23  and  _24
REMARK   11  A    between atoms: _27  and  _29
REMARK   12  A    between atoms: _29  and  _30
REMARK   13  A    between atoms: _29  and  _32
REMARK   14  A    between atoms: _32  and  _33
REMARK   15  A    between atoms: _36  and  _38
REMARK   16  A    between atoms: _38  and  _39
REMARK   17  A    between atoms: _38  and  _41
REMARK   18  A    between atoms: _41  and  _42
REMARK   19  A    between atoms: _45  and  _47
REMARK   20  A    between atoms: _47  and  _48
REMARK   21  A    between atoms: _47  and  _50
REMARK   22  A    between atoms: _50  and  _51
REMARK   23  A    between atoms: _54  and  _56
REMARK   24  A    between atoms: _56  and  _57
REMARK   25  A    between atoms: _59  and  _61
REMARK   26  A    between atoms: _61  and  _62
REMARK   27  A    between atoms: _65  and  _67
REMARK   28  A    between atoms: _67  and  _68
REMARK   29  A    between atoms: _67  and  _70
REMARK   30  A    between atoms: _70  and  _71
REMARK   31  A    between atoms: _74  and  _76
REMARK   32  A    between atoms: _76  and  _77
REMARK   33  A    between atoms: _76  and  _79
REMARK   34  A    between atoms: _79  and  _80
REMARK   35  A    between atoms: _83  and  _85
REMARK   36  A    between atoms: _85  and  _86
REMARK   37  A    between atoms: _85  and  _88
REMARK   38  A    between atoms: _88  and  _89
REMARK   39  A    between atoms: _92  and  _94
REMARK   40  A    between atoms: _94  and  _95
REMARK   41  A    between atoms: _94  and  _97
REMARK   42  A    between atoms: _100  and  _102
REMARK   43  A    between atoms: _102  and  _103
REMARK   44  A    between atoms: _102  and  _105
REMARK   45  A    between atoms: _105  and  _106
REMARK   46  A    between atoms: _109  and  _111
REMARK   47  A    between atoms: _111  and  _112
REMARK   48  A    between atoms: _111  and  _114
REMARK   49  A    between atoms: _115  and  _116
REMARK   50  A    between atoms: _116  and  _117
REMARK   51  A    between atoms: _117  and  _118
REMARK   52  A    between atoms: _122  and  _124
REMARK   53  A    between atoms: _124  and  _125
REMARK   54  A    between atoms: _124  and  _127
REMARK   55  A    between atoms: _127  and  _128
REMARK   56  A    between atoms: _128  and  _129
REMARK   57  A    between atoms: _131  and  _133
REMARK   58  A    between atoms: _133  and  _134
REMARK   59  A    between atoms: _133  and  _136
REMARK   60  A    between atoms: _136  and  _137
REMARK   61  A    between atoms: _140  and  _142
REMARK   62  A    between atoms: _142  and  _143
REMARK   63  A    between atoms: _142  and  _145
REMARK   64  A    between atoms: _148  and  _150
REMARK   65  A    between atoms: _150  and  _151
REMARK   66  A    between atoms: _153  and  _155
REMARK   67  A    between atoms: _155  and  _156
REMARK   68  A    between atoms: _155  and  _158
REMARK   69  A    between atoms: _158  and  _159
REMARK   70  A    between atoms: _162  and  _164
REMARK   71  A    between atoms: _164  and  _165
REMARK   72  A    between atoms: _167  and  _169
REMARK   73  A    between atoms: _169  and  _170
REMARK   74  A    between atoms: _172  and  _174
REMARK   75  A    between atoms: _174  and  _175
REMARK   76  A    between atoms: _174  and  _177
REMARK   77  A    between atoms: _177  and  _178
REMARK   78  A    between atoms: _184  and  _186
REMARK   79  A    between atoms: _186  and  _187
REMARK   80  A    between atoms: _186  and  _189
REMARK   81  A    between atoms: _189  and  _190
REMARK   82  A    between atoms: _193  and  _195
REMARK   83  A    between atoms: _195  and  _196
REMARK   84  A    between atoms: _195  and  _198
REMARK   85  A    between atoms: _201  and  _203
REMARK   86  A    between atoms: _203  and  _204
REMARK   87  A    between atoms: _203  and  _206
REMARK   88  A    between atoms: _206  and  _207
REMARK   89  A    between atoms: _211  and  _212
REMARK   90  A    between atoms: _217  and  _219
REMARK   91  A    between atoms: _219  and  _220
REMARK   92  A    between atoms: _219  and  _222
REMARK   93  A    between atoms: _222  and  _223
REMARK   94  A    between atoms: _227  and  _228
REMARK   95  A    between atoms: _233  and  _235
REMARK   96  A    between atoms: _235  and  _236
REMARK   97  A    between atoms: _235  and  _238
REMARK   98  A    between atoms: _241  and  _243
REMARK   99  A    between atoms: _243  and  _244
REMARK  100  A    between atoms: _243  and  _246
REMARK  101  A    between atoms: _246  and  _247
REMARK  102  A    between atoms: _252  and  _254
REMARK  103  A    between atoms: _254  and  _255
REMARK  104  A    between atoms: _254  and  _257
REMARK  105  A    between atoms: _257  and  _258
REMARK  106  A    between atoms: _261  and  _263
REMARK  107  A    between atoms: _263  and  _264
REMARK  108  A    between atoms: _263  and  _266
REMARK  109  A    between atoms: _266  and  _267
REMARK  110  A    between atoms: _270  and  _272
REMARK  111  A    between atoms: _272  and  _273
REMARK  112  A    between atoms: _275  and  _277
REMARK  113  A    between atoms: _277  and  _278
REMARK  114  A    between atoms: _277  and  _280
REMARK  115  A    between atoms: _280  and  _281
REMARK  116  A    between atoms: _281  and  _282
REMARK  117  A    between atoms: _282  and  _283
REMARK  118  A    between atoms: _292  and  _294
REMARK  119  A    between atoms: _294  and  _295
REMARK  120  A    between atoms: _294  and  _297
REMARK  121  A    between atoms: _297  and  _298
REMARK  122  A    between atoms: _303  and  _305
REMARK  123  A    between atoms: _305  and  _306
REMARK  124  A    between atoms: _305  and  _308
REMARK  125  A    between atoms: _308  and  _309
REMARK  126  A    between atoms: _309  and  _310
REMARK  127  A    between atoms: _310  and  _311
REMARK  128  A    between atoms: _320  and  _322
REMARK  129  A    between atoms: _322  and  _323
REMARK  130  A    between atoms: _322  and  _325
REMARK  131  A    between atoms: _325  and  _326
REMARK  132  A    between atoms: _329  and  _331
REMARK  133  A    between atoms: _331  and  _332
REMARK  134  A    between atoms: _331  and  _334
REMARK  135  A    between atoms: _334  and  _335
REMARK  136  A    between atoms: _338  and  _340
REMARK  137  A    between atoms: _340  and  _341
REMARK  138  A    between atoms: _340  and  _343
REMARK  139  A    between atoms: _343  and  _344
REMARK  140  A    between atoms: _347  and  _349
REMARK  141  A    between atoms: _349  and  _350
REMARK  142  A    between atoms: _349  and  _352
REMARK  143  A    between atoms: _352  and  _353
REMARK  144  A    between atoms: _356  and  _358
REMARK  145  A    between atoms: _358  and  _359
REMARK  146  A    between atoms: _361  and  _363
REMARK  147  A    between atoms: _363  and  _364
REMARK  148  A    between atoms: _367  and  _369
REMARK  149  A    between atoms: _369  and  _370
REMARK  150  A    between atoms: _369  and  _372
REMARK  151  A    between atoms: _372  and  _373
REMARK  152  A    between atoms: _376  and  _378
REMARK  153  A    between atoms: _378  and  _379
REMARK  154  A    between atoms: _378  and  _381
REMARK  155  A    between atoms: _381  and  _382
REMARK  156  A    between atoms: _385  and  _387
REMARK  157  A    between atoms: _387  and  _388
REMARK  158  A    between atoms: _387  and  _390
REMARK  159  A    between atoms: _390  and  _391
REMARK  160  A    between atoms: _394  and  _396
REMARK  161  A    between atoms: _396  and  _397
REMARK  162  A    between atoms: _396  and  _399
REMARK  163  A    between atoms: _402  and  _404
REMARK  164  A    between atoms: _404  and  _405
REMARK  165  A    between atoms: _404  and  _407
REMARK  166  A    between atoms: _407  and  _408
REMARK  167  A    between atoms: _408  and  _409
REMARK  168  A    between atoms: _409  and  _410
REMARK  169  A    between atoms: _410  and  _411
REMARK  170  A    between atoms: _415  and  _417
REMARK  171  A    between atoms: _417  and  _418
REMARK  172  A    between atoms: _417  and  _420
REMARK  173  A    between atoms: _420  and  _421
REMARK  174  A    between atoms: _421  and  _422
REMARK  175  A    between atoms: _424  and  _426
REMARK  176  A    between atoms: _426  and  _427
REMARK  177  A    between atoms: _426  and  _429
REMARK  178  A    between atoms: _429  and  _430
REMARK  179  A    between atoms: _433  and  _435
REMARK  180  A    between atoms: _435  and  _436
REMARK  181  A    between atoms: _435  and  _438
REMARK  182  A    between atoms: _441  and  _443
REMARK  183  A    between atoms: _443  and  _444
REMARK  184  A    between atoms: _446  and  _448
REMARK  185  A    between atoms: _448  and  _449
REMARK  186  A    between atoms: _448  and  _451
REMARK  187  A    between atoms: _451  and  _452
REMARK  188  A    between atoms: _455  and  _457
REMARK  189  A    between atoms: _457  and  _458
REMARK  190  A    between atoms: _460  and  _462
REMARK  191  A    between atoms: _462  and  _463
REMARK  192  A    between atoms: _465  and  _467
REMARK  193  A    between atoms: _467  and  _468
REMARK  194  A    between atoms: _467  and  _470
REMARK  195  A    between atoms: _470  and  _471
REMARK  196  A    between atoms: _474  and  _476
REMARK  197  A    between atoms: _476  and  _477
REMARK  198  A    between atoms: _476  and  _479
REMARK  199  A    between atoms: _479  and  _480
REMARK  200  A    between atoms: _483  and  _485
REMARK  201  A    between atoms: _485  and  _486
REMARK  202  A    between atoms: _485  and  _488
REMARK  203  A    between atoms: _488  and  _489
REMARK  204  A    between atoms: _493  and  _494
REMARK  205  A    between atoms: _499  and  _501
REMARK  206  A    between atoms: _501  and  _502
REMARK  207  A    between atoms: _501  and  _504
REMARK  208  A    between atoms: _507  and  _509
REMARK  209  A    between atoms: _509  and  _510
REMARK  210  A    between atoms: _509  and  _512
REMARK  211  A    between atoms: _512  and  _513
REMARK  212  A    between atoms: _518  and  _520
REMARK  213  A    between atoms: _520  and  _521
REMARK  214  A    between atoms: _520  and  _523
REMARK  215  A    between atoms: _523  and  _524
REMARK  216  A    between atoms: _527  and  _529
REMARK  217  A    between atoms: _529  and  _530
REMARK  218  A    between atoms: _529  and  _532
REMARK  219  A    between atoms: _532  and  _533
REMARK  220  A    between atoms: _536  and  _538
REMARK  221  A    between atoms: _538  and  _539
REMARK  222  A    between atoms: _541  and  _543
REMARK  223  A    between atoms: _543  and  _544
REMARK  224  A    between atoms: _543  and  _546
REMARK  225  A    between atoms: _546  and  _547
REMARK  226  A    between atoms: _547  and  _548
REMARK  227  A    between atoms: _548  and  _549
REMARK  228  A    between atoms: _558  and  _560
REMARK  229  A    between atoms: _560  and  _561
REMARK  230  A    between atoms: _560  and  _563
REMARK  231  A    between atoms: _563  and  _564
REMARK                            x       y       z     vdW  Elec       q    Type
REMARK                         _______ _______ _______ _____ _____    ______ ____
ROOT
ATOM      1  O   HOH     1     -21.926  18.775 -18.052  0.00  0.00    +0.000 OA
ENDROOT
TORSDOF 0
REMARK  Name = ../refined-set-2016/3cyw/3cyw_pocket.pdb
REMARK  231 active torsions:
REMARK  status: ('A' for Active; 'I' for Inactive)
REMARK    1  A    between atoms: _1  and  _3
REMARK    2  A    between atoms: _3  and  _4
REMARK    3  A    between atoms: _3  and  _6
REMARK    4  A    between atoms: _6  and  _7
REMARK    5  A    between atoms: _7  and  _8
REMARK    6  A    between atoms: _8  and  _9
REMARK    7  A    between atoms: _18  and  _20
REMARK    8  A    between atoms: _20  and  _21
REMARK    9  A    between atoms: _20  and  _23
REMARK   10  A    between atoms: _23  and  _24
REMARK   11  A    between atoms: _27  and  _29
REMARK   12  A    between atoms: _29  and  _30
REMARK   13  A    between atoms: _29  and  _32
REMARK   14  A    between atoms: _32  and  _33
REMARK   15  A    between atoms: _36  and  _38
REMARK   16  A    between atoms: _38  and  _39
REMARK   17  A    between atoms: _38  and  _41
REMARK   18  A    between atoms: _41  and  _42
REMARK   19  A    between atoms: _45  and  _47
REMARK   20  A    between atoms: _47  and  _48
REMARK   21  A    between atoms: _47  and  _50
REMARK   22  A    between atoms: _50  and  _51
REMARK   23  A    between atoms: _54  and  _56
REMARK   24  A    between atoms: _56  and  _57
REMARK   25  A    between atoms: _59  and  _61
REMARK   26  A    between atoms: _61  and  _62
REMARK   27  A    between atoms: _65  and  _67
REMARK   28  A    between atoms: _67  and  _68
REMARK   29  A    between atoms: _67  and  _70
REMARK   30  A    between atoms: _70  and  _71
REMARK   31  A    between atoms: _74  and  _76
REMARK   32  A    between atoms: _76  and  _77
REMARK   33  A    between atoms: _76  and  _79
REMARK   34  A    between atoms: _79  and  _80
REMARK   35  A    between atoms: _83  and  _85
REMARK   36  A    between atoms: _85  and  _86
REMARK   37  A    between atoms: _85  and  _88
REMARK   38  A    between atoms: _88  and  _89
REMARK   39  A    between atoms: _92  and  _94
REMARK   40  A    between atoms: _94  and  _95
REMARK   41  A    between atoms: _94  and  _97
REMARK   42  A    between atoms: _100  and  _102
REMARK   43  A    between atoms: _102  and  _103
REMARK   44  A    between atoms: _102  and  _105
REMARK   45  A    between atoms: _105  and  _106
REMARK   46  A    between atoms: _109  and  _111
REMARK   47  A    between atoms: _111  and  _112
REMARK   48  A    between atoms: _111  and  _114
REMARK   49  A    between atoms: _115  and  _116
REMARK   50  A    between atoms: _116  and  _117
REMARK   51  A    between atoms: _117  and  _118
REMARK   52  A    between atoms: _122  and  _124
REMARK   53  A    between atoms: _124  and  _125
REMARK   54  A    between atoms: _124  and  _127
REMARK   55  A    between atoms: _127  and  _128
REMARK   56  A    between atoms: _128  and  _129
REMARK   57  A    between atoms: _131  and  _133
REMARK   58  A    between atoms: _133  and  _134
REMARK   59  A    between atoms: _133  and  _136
REMARK   60  A    between atoms: _136  and  _137
REMARK   61  A    between atoms: _140  and  _142
REMARK   62  A    between atoms: _142  and  _143
REMARK   63  A    between atoms: _142  and  _145
REMARK   64  A    between atoms: _148  and  _150
REMARK   65  A    between atoms: _150  and  _151
REMARK   66  A    between atoms: _153  and  _155
REMARK   67  A    between atoms: _155  and  _156
REMARK   68  A    between atoms: _155  and  _158
REMARK   69  A    between atoms: _158  and  _159
REMARK   70  A    between atoms: _162  and  _164
REMARK   71  A    between atoms: _164  and  _165
REMARK   72  A    between atoms: _167  and  _169
REMARK   73  A    between atoms: _169  and  _170
REMARK   74  A    between atoms: _172  and  _174
REMARK   75  A    between atoms: _174  and  _175
REMARK   76  A    between atoms: _174  and  _177
REMARK   77  A    between atoms: _177  and  _178
REMARK   78  A    between atoms: _184  and  _186
REMARK   79  A    between atoms: _186  and  _187
REMARK   80  A    between atoms: _186  and  _189
REMARK   81  A    between atoms: _189  and  _190
REMARK   82  A    between atoms: _193  and  _195
REMARK   83  A    between atoms: _195  and  _196
REMARK   84  A    between atoms: _195  and  _198
REMARK   85  A    between atoms: _201  and  _203
REMARK   86  A    between atoms: _203  and  _204
REMARK   87  A    between atoms: _203  and  _206
REMARK   88  A    between atoms: _206  and  _207
REMARK   89  A    between atoms: _211  and  _212
REMARK   90  A    between atoms: _217  and  _219
REMARK   91  A    between atoms: _219  and  _220
REMARK   92  A    between atoms: _219  and  _222
REMARK   93  A    between atoms: _222  and  _223
REMARK   94  A    between atoms: _227  and  _228
REMARK   95  A    between atoms: _233  and  _235
REMARK   96  A    between atoms: _235  and  _236
REMARK   97  A    between atoms: _235  and  _238
REMARK   98  A    between atoms: _241  and  _243
REMARK   99  A    between atoms: _243  and  _244
REMARK  100  A    between atoms: _243  and  _246
REMARK  101  A    between atoms: _246  and  _247
REMARK  102  A    between atoms: _252  and  _254
REMARK  103  A    between atoms: _254  and  _255
REMARK  104  A    between atoms: _254  and  _257
REMARK  105  A    between atoms: _257  and  _258
REMARK  106  A    between atoms: _261  and  _263
REMARK  107  A    between atoms: _263  and  _264
REMARK  108  A    between atoms: _263  and  _266
REMARK  109  A    between atoms: _266  and  _267
REMARK  110  A    between atoms: _270  and  _272
REMARK  111  A    between atoms: _272  and  _273
REMARK  112  A    between atoms: _275  and  _277
REMARK  113  A    between atoms: _277  and  _278
REMARK  114  A    between atoms: _277  and  _280
REMARK  115  A    between atoms: _280  and  _281
REMARK  116  A    between atoms: _281  and  _282
REMARK  117  A    between atoms: _282  and  _283
REMARK  118  A    between atoms: _292  and  _294
REMARK  119  A    between atoms: _294  and  _295
REMARK  120  A    between atoms: _294  and  _297
REMARK  121  A    between atoms: _297  and  _298
REMARK  122  A    between atoms: _303  and  _305
REMARK  123  A    between atoms: _305  and  _306
REMARK  124  A    between atoms: _305  and  _308
REMARK  125  A    between atoms: _308  and  _309
REMARK  126  A    between atoms: _309  and  _310
REMARK  127  A    between atoms: _310  and  _311
REMARK  128  A    between atoms: _320  and  _322
REMARK  129  A    between atoms: _322  and  _323
REMARK  130  A    between atoms: _322  and  _325
REMARK  131  A    between atoms: _325  and  _326
REMARK  132  A    between atoms: _329  and  _331
REMARK  133  A    between atoms: _331  and  _332
REMARK  134  A    between atoms: _331  and  _334
REMARK  135  A    between atoms: _334  and  _335
REMARK  136  A    between atoms: _338  and  _340
REMARK  137  A    between atoms: _340  and  _341
REMARK  138  A    between atoms: _340  and  _343
REMARK  139  A    between atoms: _343  and  _344
REMARK  140  A    between atoms: _347  and  _349
REMARK  141  A    between atoms: _349  and  _350
REMARK  142  A    between atoms: _349  and  _352
REMARK  143  A    between atoms: _352  and  _353
REMARK  144  A    between atoms: _356  and  _358
REMARK  145  A    between atoms: _358  and  _359
REMARK  146  A    between atoms: _361  and  _363
REMARK  147  A    between atoms: _363  and  _364
REMARK  148  A    between atoms: _367  and  _369
REMARK  149  A    between atoms: _369  and  _370
REMARK  150  A    between atoms: _369  and  _372
REMARK  151  A    between atoms: _372  and  _373
REMARK  152  A    between atoms: _376  and  _378
REMARK  153  A    between atoms: _378  and  _379
REMARK  154  A    between atoms: _378  and  _381
REMARK  155  A    between atoms: _381  and  _382
REMARK  156  A    between atoms: _385  and  _387
REMARK  157  A    between atoms: _387  and  _388
REMARK  158  A    between atoms: _387  and  _390
REMARK  159  A    between atoms: _390  and  _391
REMARK  160  A    between atoms: _394  and  _396
REMARK  161  A    between atoms: _396  and  _397
REMARK  162  A    between atoms: _396  and  _399
REMARK  163  A    between atoms: _402  and  _404
REMARK  164  A    between atoms: _404  and  _405
REMARK  165  A    between atoms: _404  and  _407
REMARK  166  A    between atoms: _407  and  _408
REMARK  167  A    between atoms: _408  and  _409
REMARK  168  A    between atoms: _409  and  _410
REMARK  169  A    between atoms: _410  and  _411
REMARK  170  A    between atoms: _415  and  _417
REMARK  171  A    between atoms: _417  and  _418
REMARK  172  A    between atoms: _417  and  _420
REMARK  173  A    between atoms: _420  and  _421
REMARK  174  A    between atoms: _421  and  _422
REMARK  175  A    between atoms: _424  and  _426
REMARK  176  A    between atoms: _426  and  _427
REMARK  177  A    between atoms: _426  and  _429
REMARK  178  A    between atoms: _429  and  _430
REMARK  179  A    between atoms: _433  and  _435
REMARK  180  A    between atoms: _435  and  _436
REMARK  181  A    between atoms: _435  and  _438
REMARK  182  A    between atoms: _441  and  _443
REMARK  183  A    between atoms: _443  and  _444
REMARK  184  A    between atoms: _446  and  _448
REMARK  185  A    between atoms: _448  and  _449
REMARK  186  A    between atoms: _448  and  _451
REMARK  187  A    between atoms: _451  and  _452
REMARK  188  A    between atoms: _455  and  _457
REMARK  189  A    between atoms: _457  and  _458
REMARK  190  A    between atoms: _460  and  _462
REMARK  191  A    between atoms: _462  and  _463
REMARK  192  A    between atoms: _465  and  _467
REMARK  193  A    between atoms: _467  and  _468
REMARK  194  A    between atoms: _467  and  _470
REMARK  195  A    between atoms: _470  and  _471
REMARK  196  A    between atoms: _474  and  _476
REMARK  197  A    between atoms: _476  and  _477
REMARK  198  A    between atoms: _476  and  _479
REMARK  199  A    between atoms: _479  and  _480
REMARK  200  A    between atoms: _483  and  _485
REMARK  201  A    between atoms: _485  and  _486
REMARK  202  A    between atoms: _485  and  _488
REMARK  203  A    between atoms: _488  and  _489
REMARK  204  A    between atoms: _493  and  _494
REMARK  205  A    between atoms: _499  and  _501
REMARK  206  A    between atoms: _501  and  _502
REMARK  207  A    between atoms: _501  and  _504
REMARK  208  A    between atoms: _507  and  _509
REMARK  209  A    between atoms: _509  and  _510
REMARK  210  A    between atoms: _509  and  _512
REMARK  211  A    between atoms: _512  and  _513
REMARK  212  A    between atoms: _518  and  _520
REMARK  213  A    between atoms: _520  and  _521
REMARK  214  A    between atoms: _520  and  _523
REMARK  215  A    between atoms: _523  and  _524
REMARK  216  A    between atoms: _527  and  _529
REMARK  217  A    between atoms: _529  and  _530
REMARK  218  A    between atoms: _529  and  _532
REMARK  219  A    between atoms: _532  and  _533
REMARK  220  A    between atoms: _536  and  _538
REMARK  221  A    between atoms: _538  and  _539
REMARK  222  A    between atoms: _541  and  _543
REMARK  223  A    between atoms: _543  and  _544
REMARK  224  A    between atoms: _543  and  _546
REMARK  225  A    between atoms: _546  and  _547
REMARK  226  A    between atoms: _547  and  _548
REMARK  227  A    between atoms: _548  and  _549
REMARK  228  A    between atoms: _558  and  _560
REMARK  229  A    between atoms: _560  and  _561
REMARK  230  A    between atoms: _560  and  _563
REMARK  231  A    between atoms: _563  and  _564
REMARK                            x       y       z     vdW  Elec       q    Type
REMARK                         _______ _______ _______ _____ _____    ______ ____
ROOT
ATOM      1  O   HOH     1     -19.879  26.664 -26.544  0.00  0.00    +0.000 OA
ENDROOT
TORSDOF 0
REMARK  Name = ../refined-set-2016/3cyw/3cyw_pocket.pdb
REMARK  231 active torsions:
REMARK  status: ('A' for Active; 'I' for Inactive)
REMARK    1  A    between atoms: _1  and  _3
REMARK    2  A    between atoms: _3  and  _4
REMARK    3  A    between atoms: _3  and  _6
REMARK    4  A    between atoms: _6  and  _7
REMARK    5  A    between atoms: _7  and  _8
REMARK    6  A    between atoms: _8  and  _9
REMARK    7  A    between atoms: _18  and  _20
REMARK    8  A    between atoms: _20  and  _21
REMARK    9  A    between atoms: _20  and  _23
REMARK   10  A    between atoms: _23  and  _24
REMARK   11  A    between atoms: _27  and  _29
REMARK   12  A    between atoms: _29  and  _30
REMARK   13  A    between atoms: _29  and  _32
REMARK   14  A    between atoms: _32  and  _33
REMARK   15  A    between atoms: _36  and  _38
REMARK   16  A    between atoms: _38  and  _39
REMARK   17  A    between atoms: _38  and  _41
REMARK   18  A    between atoms: _41  and  _42
REMARK   19  A    between atoms: _45  and  _47
REMARK   20  A    between atoms: _47  and  _48
REMARK   21  A    between atoms: _47  and  _50
REMARK   22  A    between atoms: _50  and  _51
REMARK   23  A    between atoms: _54  and  _56
REMARK   24  A    between atoms: _56  and  _57
REMARK   25  A    between atoms: _59  and  _61
REMARK   26  A    between atoms: _61  and  _62
REMARK   27  A    between atoms: _65  and  _67
REMARK   28  A    between atoms: _67  and  _68
REMARK   29  A    between atoms: _67  and  _70
REMARK   30  A    between atoms: _70  and  _71
REMARK   31  A    between atoms: _74  and  _76
REMARK   32  A    between atoms: _76  and  _77
REMARK   33  A    between atoms: _76  and  _79
REMARK   34  A    between atoms: _79  and  _80
REMARK   35  A    between atoms: _83  and  _85
REMARK   36  A    between atoms: _85  and  _86
REMARK   37  A    between atoms: _85  and  _88
REMARK   38  A    between atoms: _88  and  _89
REMARK   39  A    between atoms: _92  and  _94
REMARK   40  A    between atoms: _94  and  _95
REMARK   41  A    between atoms: _94  and  _97
REMARK   42  A    between atoms: _100  and  _102
REMARK   43  A    between atoms: _102  and  _103
REMARK   44  A    between atoms: _102  and  _105
REMARK   45  A    between atoms: _105  and  _106
REMARK   46  A    between atoms: _109  and  _111
REMARK   47  A    between atoms: _111  and  _112
REMARK   48  A    between atoms: _111  and  _114
REMARK   49  A    between atoms: _115  and  _116
REMARK   50  A    between atoms: _116  and  _117
REMARK   51  A    between atoms: _117  and  _118
REMARK   52  A    between atoms: _122  and  _124
REMARK   53  A    between atoms: _124  and  _125
REMARK   54  A    between atoms: _124  and  _127
REMARK   55  A    between atoms: _127  and  _128
REMARK   56  A    between atoms: _128  and  _129
REMARK   57  A    between atoms: _131  and  _133
REMARK   58  A    between atoms: _133  and  _134
REMARK   59  A    between atoms: _133  and  _136
REMARK   60  A    between atoms: _136  and  _137
REMARK   61  A    between atoms: _140  and  _142
REMARK   62  A    between atoms: _142  and  _143
REMARK   63  A    between atoms: _142  and  _145
REMARK   64  A    between atoms: _148  and  _150
REMARK   65  A    between atoms: _150  and  _151
REMARK   66  A    between atoms: _153  and  _155
REMARK   67  A    between atoms: _155  and  _156
REMARK   68  A    between atoms: _155  and  _158
REMARK   69  A    between atoms: _158  and  _159
REMARK   70  A    between atoms: _162  and  _164
REMARK   71  A    between atoms: _164  and  _165
REMARK   72  A    between atoms: _167  and  _169
REMARK   73  A    between atoms: _169  and  _170
REMARK   74  A    between atoms: _172  and  _174
REMARK   75  A    between atoms: _174  and  _175
REMARK   76  A    between atoms: _174  and  _177
REMARK   77  A    between atoms: _177  and  _178
REMARK   78  A    between atoms: _184  and  _186
REMARK   79  A    between atoms: _186  and  _187
REMARK   80  A    between atoms: _186  and  _189
REMARK   81  A    between atoms: _189  and  _190
REMARK   82  A    between atoms: _193  and  _195
REMARK   83  A    between atoms: _195  and  _196
REMARK   84  A    between atoms: _195  and  _198
REMARK   85  A    between atoms: _201  and  _203
REMARK   86  A    between atoms: _203  and  _204
REMARK   87  A    between atoms: _203  and  _206
REMARK   88  A    between atoms: _206  and  _207
REMARK   89  A    between atoms: _211  and  _212
REMARK   90  A    between atoms: _217  and  _219
REMARK   91  A    between atoms: _219  and  _220
REMARK   92  A    between atoms: _219  and  _222
REMARK   93  A    between atoms: _222  and  _223
REMARK   94  A    between atoms: _227  and  _228
REMARK   95  A    between atoms: _233  and  _235
REMARK   96  A    between atoms: _235  and  _236
REMARK   97  A    between atoms: _235  and  _238
REMARK   98  A    between atoms: _241  and  _243
REMARK   99  A    between atoms: _243  and  _244
REMARK  100  A    between atoms: _243  and  _246
REMARK  101  A    between atoms: _246  and  _247
REMARK  102  A    between atoms: _252  and  _254
REMARK  103  A    between atoms: _254  and  _255
REMARK  104  A    between atoms: _254  and  _257
REMARK  105  A    between atoms: _257  and  _258
REMARK  106  A    between atoms: _261  and  _263
REMARK  107  A    between atoms: _263  and  _264
REMARK  108  A    between atoms: _263  and  _266
REMARK  109  A    between atoms: _266  and  _267
REMARK  110  A    between atoms: _270  and  _272
REMARK  111  A    between atoms: _272  and  _273
REMARK  112  A    between atoms: _275  and  _277
REMARK  113  A    between atoms: _277  and  _278
REMARK  114  A    between atoms: _277  and  _280
REMARK  115  A    between atoms: _280  and  _281
REMARK  116  A    between atoms: _281  and  _282
REMARK  117  A    between atoms: _282  and  _283
REMARK  118  A    between atoms: _292  and  _294
REMARK  119  A    between atoms: _294  and  _295
REMARK  120  A    between atoms: _294  and  _297
REMARK  121  A    between atoms: _297  and  _298
REMARK  122  A    between atoms: _303  and  _305
REMARK  123  A    between atoms: _305  and  _306
REMARK  124  A    between atoms: _305  and  _308
REMARK  125  A    between atoms: _308  and  _309
REMARK  126  A    between atoms: _309  and  _310
REMARK  127  A    between atoms: _310  and  _311
REMARK  128  A    between atoms: _320  and  _322
REMARK  129  A    between atoms: _322  and  _323
REMARK  130  A    between atoms: _322  and  _325
REMARK  131  A    between atoms: _325  and  _326
REMARK  132  A    between atoms: _329  and  _331
REMARK  133  A    between atoms: _331  and  _332
REMARK  134  A    between atoms: _331  and  _334
REMARK  135  A    between atoms: _334  and  _335
REMARK  136  A    between atoms: _338  and  _340
REMARK  137  A    between atoms: _340  and  _341
REMARK  138  A    between atoms: _340  and  _343
REMARK  139  A    between atoms: _343  and  _344
REMARK  140  A    between atoms: _347  and  _349
REMARK  141  A    between atoms: _349  and  _350
REMARK  142  A    between atoms: _349  and  _352
REMARK  143  A    between atoms: _352  and  _353
REMARK  144  A    between atoms: _356  and  _358
REMARK  145  A    between atoms: _358  and  _359
REMARK  146  A    between atoms: _361  and  _363
REMARK  147  A    between atoms: _363  and  _364
REMARK  148  A    between atoms: _367  and  _369
REMARK  149  A    between atoms: _369  and  _370
REMARK  150  A    between atoms: _369  and  _372
REMARK  151  A    between atoms: _372  and  _373
REMARK  152  A    between atoms: _376  and  _378
REMARK  153  A    between atoms: _378  and  _379
REMARK  154  A    between atoms: _378  and  _381
REMARK  155  A    between atoms: _381  and  _382
REMARK  156  A    between atoms: _385  and  _387
REMARK  157  A    between atoms: _387  and  _388
REMARK  158  A    between atoms: _387  and  _390
REMARK  159  A    between atoms: _390  and  _391
REMARK  160  A    between atoms: _394  and  _396
REMARK  161  A    between atoms: _396  and  _397
REMARK  162  A    between atoms: _396  and  _399
REMARK  163  A    between atoms: _402  and  _404
REMARK  164  A    between atoms: _404  and  _405
REMARK  165  A    between atoms: _404  and  _407
REMARK  166  A    between atoms: _407  and  _408
REMARK  167  A    between atoms: _408  and  _409
REMARK  168  A    between atoms: _409  and  _410
REMARK  169  A    between atoms: _410  and  _411
REMARK  170  A    between atoms: _415  and  _417
REMARK  171  A    between atoms: _417  and  _418
REMARK  172  A    between atoms: _417  and  _420
REMARK  173  A    between atoms: _420  and  _421
REMARK  174  A    between atoms: _421  and  _422
REMARK  175  A    between atoms: _424  and  _426
REMARK  176  A    between atoms: _426  and  _427
REMARK  177  A    between atoms: _426  and  _429
REMARK  178  A    between atoms: _429  and  _430
REMARK  179  A    between atoms: _433  and  _435
REMARK  180  A    between atoms: _435  and  _436
REMARK  181  A    between atoms: _435  and  _438
REMARK  182  A    between atoms: _441  and  _443
REMARK  183  A    between atoms: _443  and  _444
REMARK  184  A    between atoms: _446  and  _448
REMARK  185  A    between atoms: _448  and  _449
REMARK  186  A    between atoms: _448  and  _451
REMARK  187  A    between atoms: _451  and  _452
REMARK  188  A    between atoms: _455  and  _457
REMARK  189  A    between atoms: _457  and  _458
REMARK  190  A    between atoms: _460  and  _462
REMARK  191  A    between atoms: _462  and  _463
REMARK  192  A    between atoms: _465  and  _467
REMARK  193  A    between atoms: _467  and  _468
REMARK  194  A    between atoms: _467  and  _470
REMARK  195  A    between atoms: _470  and  _471
REMARK  196  A    between atoms: _474  and  _476
REMARK  197  A    between atoms: _476  and  _477
REMARK  198  A    between atoms: _476  and  _479
REMARK  199  A    between atoms: _479  and  _480
REMARK  200  A    between atoms: _483  and  _485
REMARK  201  A    between atoms: _485  and  _486
REMARK  202  A    between atoms: _485  and  _488
REMARK  203  A    between atoms: _488  and  _489
REMARK  204  A    between atoms: _493  and  _494
REMARK  205  A    between atoms: _499  and  _501
REMARK  206  A    between atoms: _501  and  _502
REMARK  207  A    between atoms: _501  and  _504
REMARK  208  A    between atoms: _507  and  _509
REMARK  209  A    between atoms: _509  and  _510
REMARK  210  A    between atoms: _509  and  _512
REMARK  211  A    between atoms: _512  and  _513
REMARK  212  A    between atoms: _518  and  _520
REMARK  213  A    between atoms: _520  and  _521
REMARK  214  A    between atoms: _520  and  _523
REMARK  215  A    between atoms: _523  and  _524
REMARK  216  A    between atoms: _527  and  _529
REMARK  217  A    between atoms: _529  and  _530
REMARK  218  A    between atoms: _529  and  _532
REMARK  219  A    between atoms: _532  and  _533
REMARK  220  A    between atoms: _536  and  _538
REMARK  221  A    between atoms: _538  and  _539
REMARK  222  A    between atoms: _541  and  _543
REMARK  223  A    between atoms: _543  and  _544
REMARK  224  A    between atoms: _543  and  _546
REMARK  225  A    between atoms: _546  and  _547
REMARK  226  A    between atoms: _547  and  _548
REMARK  227  A    between atoms: _548  and  _549
REMARK  228  A    between atoms: _558  and  _560
REMARK  229  A    between atoms: _560  and  _561
REMARK  230  A    between atoms: _560  and  _563
REMARK  231  A    between atoms: _563  and  _564
REMARK                            x       y       z     vdW  Elec       q    Type
REMARK                         _______ _______ _______ _____ _____    ______ ____
ROOT
ATOM      1  O   HOH     1     -13.017  27.328 -10.176  0.00  0.00    +0.000 OA
ENDROOT
TORSDOF 0
REMARK  Name = ../refined-set-2016/3cyw/3cyw_pocket.pdb
REMARK  231 active torsions:
REMARK  status: ('A' for Active; 'I' for Inactive)
REMARK    1  A    between atoms: _1  and  _3
REMARK    2  A    between atoms: _3  and  _4
REMARK    3  A    between atoms: _3  and  _6
REMARK    4  A    between atoms: _6  and  _7
REMARK    5  A    between atoms: _7  and  _8
REMARK    6  A    between atoms: _8  and  _9
REMARK    7  A    between atoms: _18  and  _20
REMARK    8  A    between atoms: _20  and  _21
REMARK    9  A    between atoms: _20  and  _23
REMARK   10  A    between atoms: _23  and  _24
REMARK   11  A    between atoms: _27  and  _29
REMARK   12  A    between atoms: _29  and  _30
REMARK   13  A    between atoms: _29  and  _32
REMARK   14  A    between atoms: _32  and  _33
REMARK   15  A    between atoms: _36  and  _38
REMARK   16  A    between atoms: _38  and  _39
REMARK   17  A    between atoms: _38  and  _41
REMARK   18  A    between atoms: _41  and  _42
REMARK   19  A    between atoms: _45  and  _47
REMARK   20  A    between atoms: _47  and  _48
REMARK   21  A    between atoms: _47  and  _50
REMARK   22  A    between atoms: _50  and  _51
REMARK   23  A    between atoms: _54  and  _56
REMARK   24  A    between atoms: _56  and  _57
REMARK   25  A    between atoms: _59  and  _61
REMARK   26  A    between atoms: _61  and  _62
REMARK   27  A    between atoms: _65  and  _67
REMARK   28  A    between atoms: _67  and  _68
REMARK   29  A    between atoms: _67  and  _70
REMARK   30  A    between atoms: _70  and  _71
REMARK   31  A    between atoms: _74  and  _76
REMARK   32  A    between atoms: _76  and  _77
REMARK   33  A    between atoms: _76  and  _79
REMARK   34  A    between atoms: _79  and  _80
REMARK   35  A    between atoms: _83  and  _85
REMARK   36  A    between atoms: _85  and  _86
REMARK   37  A    between atoms: _85  and  _88
REMARK   38  A    between atoms: _88  and  _89
REMARK   39  A    between atoms: _92  and  _94
REMARK   40  A    between atoms: _94  and  _95
REMARK   41  A    between atoms: _94  and  _97
REMARK   42  A    between atoms: _100  and  _102
REMARK   43  A    between atoms: _102  and  _103
REMARK   44  A    between atoms: _102  and  _105
REMARK   45  A    between atoms: _105  and  _106
REMARK   46  A    between atoms: _109  and  _111
REMARK   47  A    between atoms: _111  and  _112
REMARK   48  A    between atoms: _111  and  _114
REMARK   49  A    between atoms: _115  and  _116
REMARK   50  A    between atoms: _116  and  _117
REMARK   51  A    between atoms: _117  and  _118
REMARK   52  A    between atoms: _122  and  _124
REMARK   53  A    between atoms: _124  and  _125
REMARK   54  A    between atoms: _124  and  _127
REMARK   55  A    between atoms: _127  and  _128
REMARK   56  A    between atoms: _128  and  _129
REMARK   57  A    between atoms: _131  and  _133
REMARK   58  A    between atoms: _133  and  _134
REMARK   59  A    between atoms: _133  and  _136
REMARK   60  A    between atoms: _136  and  _137
REMARK   61  A    between atoms: _140  and  _142
REMARK   62  A    between atoms: _142  and  _143
REMARK   63  A    between atoms: _142  and  _145
REMARK   64  A    between atoms: _148  and  _150
REMARK   65  A    between atoms: _150  and  _151
REMARK   66  A    between atoms: _153  and  _155
REMARK   67  A    between atoms: _155  and  _156
REMARK   68  A    between atoms: _155  and  _158
REMARK   69  A    between atoms: _158  and  _159
REMARK   70  A    between atoms: _162  and  _164
REMARK   71  A    between atoms: _164  and  _165
REMARK   72  A    between atoms: _167  and  _169
REMARK   73  A    between atoms: _169  and  _170
REMARK   74  A    between atoms: _172  and  _174
REMARK   75  A    between atoms: _174  and  _175
REMARK   76  A    between atoms: _174  and  _177
REMARK   77  A    between atoms: _177  and  _178
REMARK   78  A    between atoms: _184  and  _186
REMARK   79  A    between atoms: _186  and  _187
REMARK   80  A    between atoms: _186  and  _189
REMARK   81  A    between atoms: _189  and  _190
REMARK   82  A    between atoms: _193  and  _195
REMARK   83  A    between atoms: _195  and  _196
REMARK   84  A    between atoms: _195  and  _198
REMARK   85  A    between atoms: _201  and  _203
REMARK   86  A    between atoms: _203  and  _204
REMARK   87  A    between atoms: _203  and  _206
REMARK   88  A    between atoms: _206  and  _207
REMARK   89  A    between atoms: _211  and  _212
REMARK   90  A    between atoms: _217  and  _219
REMARK   91  A    between atoms: _219  and  _220
REMARK   92  A    between atoms: _219  and  _222
REMARK   93  A    between atoms: _222  and  _223
REMARK   94  A    between atoms: _227  and  _228
REMARK   95  A    between atoms: _233  and  _235
REMARK   96  A    between atoms: _235  and  _236
REMARK   97  A    between atoms: _235  and  _238
REMARK   98  A    between atoms: _241  and  _243
REMARK   99  A    between atoms: _243  and  _244
REMARK  100  A    between atoms: _243  and  _246
REMARK  101  A    between atoms: _246  and  _247
REMARK  102  A    between atoms: _252  and  _254
REMARK  103  A    between atoms: _254  and  _255
REMARK  104  A    between atoms: _254  and  _257
REMARK  105  A    between atoms: _257  and  _258
REMARK  106  A    between atoms: _261  and  _263
REMARK  107  A    between atoms: _263  and  _264
REMARK  108  A    between atoms: _263  and  _266
REMARK  109  A    between atoms: _266  and  _267
REMARK  110  A    between atoms: _270  and  _272
REMARK  111  A    between atoms: _272  and  _273
REMARK  112  A    between atoms: _275  and  _277
REMARK  113  A    between atoms: _277  and  _278
REMARK  114  A    between atoms: _277  and  _280
REMARK  115  A    between atoms: _280  and  _281
REMARK  116  A    between atoms: _281  and  _282
REMARK  117  A    between atoms: _282  and  _283
REMARK  118  A    between atoms: _292  and  _294
REMARK  119  A    between atoms: _294  and  _295
REMARK  120  A    between atoms: _294  and  _297
REMARK  121  A    between atoms: _297  and  _298
REMARK  122  A    between atoms: _303  and  _305
REMARK  123  A    between atoms: _305  and  _306
REMARK  124  A    between atoms: _305  and  _308
REMARK  125  A    between atoms: _308  and  _309
REMARK  126  A    between atoms: _309  and  _310
REMARK  127  A    between atoms: _310  and  _311
REMARK  128  A    between atoms: _320  and  _322
REMARK  129  A    between atoms: _322  and  _323
REMARK  130  A    between atoms: _322  and  _325
REMARK  131  A    between atoms: _325  and  _326
REMARK  132  A    between atoms: _329  and  _331
REMARK  133  A    between atoms: _331  and  _332
REMARK  134  A    between atoms: _331  and  _334
REMARK  135  A    between atoms: _334  and  _335
REMARK  136  A    between atoms: _338  and  _340
REMARK  137  A    between atoms: _340  and  _341
REMARK  138  A    between atoms: _340  and  _343
REMARK  139  A    between atoms: _343  and  _344
REMARK  140  A    between atoms: _347  and  _349
REMARK  141  A    between atoms: _349  and  _350
REMARK  142  A    between atoms: _349  and  _352
REMARK  143  A    between atoms: _352  and  _353
REMARK  144  A    between atoms: _356  and  _358
REMARK  145  A    between atoms: _358  and  _359
REMARK  146  A    between atoms: _361  and  _363
REMARK  147  A    between atoms: _363  and  _364
REMARK  148  A    between atoms: _367  and  _369
REMARK  149  A    between atoms: _369  and  _370
REMARK  150  A    between atoms: _369  and  _372
REMARK  151  A    between atoms: _372  and  _373
REMARK  152  A    between atoms: _376  and  _378
REMARK  153  A    between atoms: _378  and  _379
REMARK  154  A    between atoms: _378  and  _381
REMARK  155  A    between atoms: _381  and  _382
REMARK  156  A    between atoms: _385  and  _387
REMARK  157  A    between atoms: _387  and  _388
REMARK  158  A    between atoms: _387  and  _390
REMARK  159  A    between atoms: _390  and  _391
REMARK  160  A    between atoms: _394  and  _396
REMARK  161  A    between atoms: _396  and  _397
REMARK  162  A    between atoms: _396  and  _399
REMARK  163  A    between atoms: _402  and  _404
REMARK  164  A    between atoms: _404  and  _405
REMARK  165  A    between atoms: _404  and  _407
REMARK  166  A    between atoms: _407  and  _408
REMARK  167  A    between atoms: _408  and  _409
REMARK  168  A    between atoms: _409  and  _410
REMARK  169  A    between atoms: _410  and  _411
REMARK  170  A    between atoms: _415  and  _417
REMARK  171  A    between atoms: _417  and  _418
REMARK  172  A    between atoms: _417  and  _420
REMARK  173  A    between atoms: _420  and  _421
REMARK  174  A    between atoms: _421  and  _422
REMARK  175  A    between atoms: _424  and  _426
REMARK  176  A    between atoms: _426  and  _427
REMARK  177  A    between atoms: _426  and  _429
REMARK  178  A    between atoms: _429  and  _430
REMARK  179  A    between atoms: _433  and  _435
REMARK  180  A    between atoms: _435  and  _436
REMARK  181  A    between atoms: _435  and  _438
REMARK  182  A    between atoms: _441  and  _443
REMARK  183  A    between atoms: _443  and  _444
REMARK  184  A    between atoms: _446  and  _448
REMARK  185  A    between atoms: _448  and  _449
REMARK  186  A    between atoms: _448  and  _451
REMARK  187  A    between atoms: _451  and  _452
REMARK  188  A    between atoms: _455  and  _457
REMARK  189  A    between atoms: _457  and  _458
REMARK  190  A    between atoms: _460  and  _462
REMARK  191  A    between atoms: _462  and  _463
REMARK  192  A    between atoms: _465  and  _467
REMARK  193  A    between atoms: _467  and  _468
REMARK  194  A    between atoms: _467  and  _470
REMARK  195  A    between atoms: _470  and  _471
REMARK  196  A    between atoms: _474  and  _476
REMARK  197  A    between atoms: _476  and  _477
REMARK  198  A    between atoms: _476  and  _479
REMARK  199  A    between atoms: _479  and  _480
REMARK  200  A    between atoms: _483  and  _485
REMARK  201  A    between atoms: _485  and  _486
REMARK  202  A    between atoms: _485  and  _488
REMARK  203  A    between atoms: _488  and  _489
REMARK  204  A    between atoms: _493  and  _494
REMARK  205  A    between atoms: _499  and  _501
REMARK  206  A    between atoms: _501  and  _502
REMARK  207  A    between atoms: _501  and  _504
REMARK  208  A    between atoms: _507  and  _509
REMARK  209  A    between atoms: _509  and  _510
REMARK  210  A    between atoms: _509  and  _512
REMARK  211  A    between atoms: _512  and  _513
REMARK  212  A    between atoms: _518  and  _520
REMARK  213  A    between atoms: _520  and  _521
REMARK  214  A    between atoms: _520  and  _523
REMARK  215  A    between atoms: _523  and  _524
REMARK  216  A    between atoms: _527  and  _529
REMARK  217  A    between atoms: _529  and  _530
REMARK  218  A    between atoms: _529  and  _532
REMARK  219  A    between atoms: _532  and  _533
REMARK  220  A    between atoms: _536  and  _538
REMARK  221  A    between atoms: _538  and  _539
REMARK  222  A    between atoms: _541  and  _543
REMARK  223  A    between atoms: _543  and  _544
REMARK  224  A    between atoms: _543  and  _546
REMARK  225  A    between atoms: _546  and  _547
REMARK  226  A    between atoms: _547  and  _548
REMARK  227  A    between atoms: _548  and  _549
REMARK  228  A    between atoms: _558  and  _560
REMARK  229  A    between atoms: _560  and  _561
REMARK  230  A    between atoms: _560  and  _563
REMARK  231  A    between atoms: _563  and  _564
REMARK                            x       y       z     vdW  Elec       q    Type
REMARK                         _______ _______ _______ _____ _____    ______ ____
ROOT
ATOM      1  O   HOH     1     -24.874  23.630 -22.618  0.00  0.00    +0.000 OA
ENDROOT
TORSDOF 0
REMARK  Name = ../refined-set-2016/3cyw/3cyw_pocket.pdb
REMARK  231 active torsions:
REMARK  status: ('A' for Active; 'I' for Inactive)
REMARK    1  A    between atoms: _1  and  _3
REMARK    2  A    between atoms: _3  and  _4
REMARK    3  A    between atoms: _3  and  _6
REMARK    4  A    between atoms: _6  and  _7
REMARK    5  A    between atoms: _7  and  _8
REMARK    6  A    between atoms: _8  and  _9
REMARK    7  A    between atoms: _18  and  _20
REMARK    8  A    between atoms: _20  and  _21
REMARK    9  A    between atoms: _20  and  _23
REMARK   10  A    between atoms: _23  and  _24
REMARK   11  A    between atoms: _27  and  _29
REMARK   12  A    between atoms: _29  and  _30
REMARK   13  A    between atoms: _29  and  _32
REMARK   14  A    between atoms: _32  and  _33
REMARK   15  A    between atoms: _36  and  _38
REMARK   16  A    between atoms: _38  and  _39
REMARK   17  A    between atoms: _38  and  _41
REMARK   18  A    between atoms: _41  and  _42
REMARK   19  A    between atoms: _45  and  _47
REMARK   20  A    between atoms: _47  and  _48
REMARK   21  A    between atoms: _47  and  _50
REMARK   22  A    between atoms: _50  and  _51
REMARK   23  A    between atoms: _54  and  _56
REMARK   24  A    between atoms: _56  and  _57
REMARK   25  A    between atoms: _59  and  _61
REMARK   26  A    between atoms: _61  and  _62
REMARK   27  A    between atoms: _65  and  _67
REMARK   28  A    between atoms: _67  and  _68
REMARK   29  A    between atoms: _67  and  _70
REMARK   30  A    between atoms: _70  and  _71
REMARK   31  A    between atoms: _74  and  _76
REMARK   32  A    between atoms: _76  and  _77
REMARK   33  A    between atoms: _76  and  _79
REMARK   34  A    between atoms: _79  and  _80
REMARK   35  A    between atoms: _83  and  _85
REMARK   36  A    between atoms: _85  and  _86
REMARK   37  A    between atoms: _85  and  _88
REMARK   38  A    between atoms: _88  and  _89
REMARK   39  A    between atoms: _92  and  _94
REMARK   40  A    between atoms: _94  and  _95
REMARK   41  A    between atoms: _94  and  _97
REMARK   42  A    between atoms: _100  and  _102
REMARK   43  A    between atoms: _102  and  _103
REMARK   44  A    between atoms: _102  and  _105
REMARK   45  A    between atoms: _105  and  _106
REMARK   46  A    between atoms: _109  and  _111
REMARK   47  A    between atoms: _111  and  _112
REMARK   48  A    between atoms: _111  and  _114
REMARK   49  A    between atoms: _115  and  _116
REMARK   50  A    between atoms: _116  and  _117
REMARK   51  A    between atoms: _117  and  _118
REMARK   52  A    between atoms: _122  and  _124
REMARK   53  A    between atoms: _124  and  _125
REMARK   54  A    between atoms: _124  and  _127
REMARK   55  A    between atoms: _127  and  _128
REMARK   56  A    between atoms: _128  and  _129
REMARK   57  A    between atoms: _131  and  _133
REMARK   58  A    between atoms: _133  and  _134
REMARK   59  A    between atoms: _133  and  _136
REMARK   60  A    between atoms: _136  and  _137
REMARK   61  A    between atoms: _140  and  _142
REMARK   62  A    between atoms: _142  and  _143
REMARK   63  A    between atoms: _142  and  _145
REMARK   64  A    between atoms: _148  and  _150
REMARK   65  A    between atoms: _150  and  _151
REMARK   66  A    between atoms: _153  and  _155
REMARK   67  A    between atoms: _155  and  _156
REMARK   68  A    between atoms: _155  and  _158
REMARK   69  A    between atoms: _158  and  _159
REMARK   70  A    between atoms: _162  and  _164
REMARK   71  A    between atoms: _164  and  _165
REMARK   72  A    between atoms: _167  and  _169
REMARK   73  A    between atoms: _169  and  _170
REMARK   74  A    between atoms: _172  and  _174
REMARK   75  A    between atoms: _174  and  _175
REMARK   76  A    between atoms: _174  and  _177
REMARK   77  A    between atoms: _177  and  _178
REMARK   78  A    between atoms: _184  and  _186
REMARK   79  A    between atoms: _186  and  _187
REMARK   80  A    between atoms: _186  and  _189
REMARK   81  A    between atoms: _189  and  _190
REMARK   82  A    between atoms: _193  and  _195
REMARK   83  A    between atoms: _195  and  _196
REMARK   84  A    between atoms: _195  and  _198
REMARK   85  A    between atoms: _201  and  _203
REMARK   86  A    between atoms: _203  and  _204
REMARK   87  A    between atoms: _203  and  _206
REMARK   88  A    between atoms: _206  and  _207
REMARK   89  A    between atoms: _211  and  _212
REMARK   90  A    between atoms: _217  and  _219
REMARK   91  A    between atoms: _219  and  _220
REMARK   92  A    between atoms: _219  and  _222
REMARK   93  A    between atoms: _222  and  _223
REMARK   94  A    between atoms: _227  and  _228
REMARK   95  A    between atoms: _233  and  _235
REMARK   96  A    between atoms: _235  and  _236
REMARK   97  A    between atoms: _235  and  _238
REMARK   98  A    between atoms: _241  and  _243
REMARK   99  A    between atoms: _243  and  _244
REMARK  100  A    between atoms: _243  and  _246
REMARK  101  A    between atoms: _246  and  _247
REMARK  102  A    between atoms: _252  and  _254
REMARK  103  A    between atoms: _254  and  _255
REMARK  104  A    between atoms: _254  and  _257
REMARK  105  A    between atoms: _257  and  _258
REMARK  106  A    between atoms: _261  and  _263
REMARK  107  A    between atoms: _263  and  _264
REMARK  108  A    between atoms: _263  and  _266
REMARK  109  A    between atoms: _266  and  _267
REMARK  110  A    between atoms: _270  and  _272
REMARK  111  A    between atoms: _272  and  _273
REMARK  112  A    between atoms: _275  and  _277
REMARK  113  A    between atoms: _277  and  _278
REMARK  114  A    between atoms: _277  and  _280
REMARK  115  A    between atoms: _280  and  _281
REMARK  116  A    between atoms: _281  and  _282
REMARK  117  A    between atoms: _282  and  _283
REMARK  118  A    between atoms: _292  and  _294
REMARK  119  A    between atoms: _294  and  _295
REMARK  120  A    between atoms: _294  and  _297
REMARK  121  A    between atoms: _297  and  _298
REMARK  122  A    between atoms: _303  and  _305
REMARK  123  A    between atoms: _305  and  _306
REMARK  124  A    between atoms: _305  and  _308
REMARK  125  A    between atoms: _308  and  _309
REMARK  126  A    between atoms: _309  and  _310
REMARK  127  A    between atoms: _310  and  _311
REMARK  128  A    between atoms: _320  and  _322
REMARK  129  A    between atoms: _322  and  _323
REMARK  130  A    between atoms: _322  and  _325
REMARK  131  A    between atoms: _325  and  _326
REMARK  132  A    between atoms: _329  and  _331
REMARK  133  A    between atoms: _331  and  _332
REMARK  134  A    between atoms: _331  and  _334
REMARK  135  A    between atoms: _334  and  _335
REMARK  136  A    between atoms: _338  and  _340
REMARK  137  A    between atoms: _340  and  _341
REMARK  138  A    between atoms: _340  and  _343
REMARK  139  A    between atoms: _343  and  _344
REMARK  140  A    between atoms: _347  and  _349
REMARK  141  A    between atoms: _349  and  _350
REMARK  142  A    between atoms: _349  and  _352
REMARK  143  A    between atoms: _352  and  _353
REMARK  144  A    between atoms: _356  and  _358
REMARK  145  A    between atoms: _358  and  _359
REMARK  146  A    between atoms: _361  and  _363
REMARK  147  A    between atoms: _363  and  _364
REMARK  148  A    between atoms: _367  and  _369
REMARK  149  A    between atoms: _369  and  _370
REMARK  150  A    between atoms: _369  and  _372
REMARK  151  A    between atoms: _372  and  _373
REMARK  152  A    between atoms: _376  and  _378
REMARK  153  A    between atoms: _378  and  _379
REMARK  154  A    between atoms: _378  and  _381
REMARK  155  A    between atoms: _381  and  _382
REMARK  156  A    between atoms: _385  and  _387
REMARK  157  A    between atoms: _387  and  _388
REMARK  158  A    between atoms: _387  and  _390
REMARK  159  A    between atoms: _390  and  _391
REMARK  160  A    between atoms: _394  and  _396
REMARK  161  A    between atoms: _396  and  _397
REMARK  162  A    between atoms: _396  and  _399
REMARK  163  A    between atoms: _402  and  _404
REMARK  164  A    between atoms: _404  and  _405
REMARK  165  A    between atoms: _404  and  _407
REMARK  166  A    between atoms: _407  and  _408
REMARK  167  A    between atoms: _408  and  _409
REMARK  168  A    between atoms: _409  and  _410
REMARK  169  A    between atoms: _410  and  _411
REMARK  170  A    between atoms: _415  and  _417
REMARK  171  A    between atoms: _417  and  _418
REMARK  172  A    between atoms: _417  and  _420
REMARK  173  A    between atoms: _420  and  _421
REMARK  174  A    between atoms: _421  and  _422
REMARK  175  A    between atoms: _424  and  _426
REMARK  176  A    between atoms: _426  and  _427
REMARK  177  A    between atoms: _426  and  _429
REMARK  178  A    between atoms: _429  and  _430
REMARK  179  A    between atoms: _433  and  _435
REMARK  180  A    between atoms: _435  and  _436
REMARK  181  A    between atoms: _435  and  _438
REMARK  182  A    between atoms: _441  and  _443
REMARK  183  A    between atoms: _443  and  _444
REMARK  184  A    between atoms: _446  and  _448
REMARK  185  A    between atoms: _448  and  _449
REMARK  186  A    between atoms: _448  and  _451
REMARK  187  A    between atoms: _451  and  _452
REMARK  188  A    between atoms: _455  and  _457
REMARK  189  A    between atoms: _457  and  _458
REMARK  190  A    between atoms: _460  and  _462
REMARK  191  A    between atoms: _462  and  _463
REMARK  192  A    between atoms: _465  and  _467
REMARK  193  A    between atoms: _467  and  _468
REMARK  194  A    between atoms: _467  and  _470
REMARK  195  A    between atoms: _470  and  _471
REMARK  196  A    between atoms: _474  and  _476
REMARK  197  A    between atoms: _476  and  _477
REMARK  198  A    between atoms: _476  and  _479
REMARK  199  A    between atoms: _479  and  _480
REMARK  200  A    between atoms: _483  and  _485
REMARK  201  A    between atoms: _485  and  _486
REMARK  202  A    between atoms: _485  and  _488
REMARK  203  A    between atoms: _488  and  _489
REMARK  204  A    between atoms: _493  and  _494
REMARK  205  A    between atoms: _499  and  _501
REMARK  206  A    between atoms: _501  and  _502
REMARK  207  A    between atoms: _501  and  _504
REMARK  208  A    between atoms: _507  and  _509
REMARK  209  A    between atoms: _509  and  _510
REMARK  210  A    between atoms: _509  and  _512
REMARK  211  A    between atoms: _512  and  _513
REMARK  212  A    between atoms: _518  and  _520
REMARK  213  A    between atoms: _520  and  _521
REMARK  214  A    between atoms: _520  and  _523
REMARK  215  A    between atoms: _523  and  _524
REMARK  216  A    between atoms: _527  and  _529
REMARK  217  A    between atoms: _529  and  _530
REMARK  218  A    between atoms: _529  and  _532
REMARK  219  A    between atoms: _532  and  _533
REMARK  220  A    between atoms: _536  and  _538
REMARK  221  A    between atoms: _538  and  _539
REMARK  222  A    between atoms: _541  and  _543
REMARK  223  A    between atoms: _543  and  _544
REMARK  224  A    between atoms: _543  and  _546
REMARK  225  A    between atoms: _546  and  _547
REMARK  226  A    between atoms: _547  and  _548
REMARK  227  A    between atoms: _548  and  _549
REMARK  228  A    between atoms: _558  and  _560
REMARK  229  A    between atoms: _560  and  _561
REMARK  230  A    between atoms: _560  and  _563
REMARK  231  A    between atoms: _563  and  _564
REMARK                            x       y       z     vdW  Elec       q    Type
REMARK                         _______ _______ _______ _____ _____    ______ ____
ROOT
ATOM      1  O   HOH     1     -22.333  26.857 -25.112  0.00  0.00    +0.000 OA
ENDROOT
TORSDOF 0
REMARK  Name = ../refined-set-2016/3cyw/3cyw_pocket.pdb
REMARK  231 active torsions:
REMARK  status: ('A' for Active; 'I' for Inactive)
REMARK    1  A    between atoms: _1  and  _3
REMARK    2  A    between atoms: _3  and  _4
REMARK    3  A    between atoms: _3  and  _6
REMARK    4  A    between atoms: _6  and  _7
REMARK    5  A    between atoms: _7  and  _8
REMARK    6  A    between atoms: _8  and  _9
REMARK    7  A    between atoms: _18  and  _20
REMARK    8  A    between atoms: _20  and  _21
REMARK    9  A    between atoms: _20  and  _23
REMARK   10  A    between atoms: _23  and  _24
REMARK   11  A    between atoms: _27  and  _29
REMARK   12  A    between atoms: _29  and  _30
REMARK   13  A    between atoms: _29  and  _32
REMARK   14  A    between atoms: _32  and  _33
REMARK   15  A    between atoms: _36  and  _38
REMARK   16  A    between atoms: _38  and  _39
REMARK   17  A    between atoms: _38  and  _41
REMARK   18  A    between atoms: _41  and  _42
REMARK   19  A    between atoms: _45  and  _47
REMARK   20  A    between atoms: _47  and  _48
REMARK   21  A    between atoms: _47  and  _50
REMARK   22  A    between atoms: _50  and  _51
REMARK   23  A    between atoms: _54  and  _56
REMARK   24  A    between atoms: _56  and  _57
REMARK   25  A    between atoms: _59  and  _61
REMARK   26  A    between atoms: _61  and  _62
REMARK   27  A    between atoms: _65  and  _67
REMARK   28  A    between atoms: _67  and  _68
REMARK   29  A    between atoms: _67  and  _70
REMARK   30  A    between atoms: _70  and  _71
REMARK   31  A    between atoms: _74  and  _76
REMARK   32  A    between atoms: _76  and  _77
REMARK   33  A    between atoms: _76  and  _79
REMARK   34  A    between atoms: _79  and  _80
REMARK   35  A    between atoms: _83  and  _85
REMARK   36  A    between atoms: _85  and  _86
REMARK   37  A    between atoms: _85  and  _88
REMARK   38  A    between atoms: _88  and  _89
REMARK   39  A    between atoms: _92  and  _94
REMARK   40  A    between atoms: _94  and  _95
REMARK   41  A    between atoms: _94  and  _97
REMARK   42  A    between atoms: _100  and  _102
REMARK   43  A    between atoms: _102  and  _103
REMARK   44  A    between atoms: _102  and  _105
REMARK   45  A    between atoms: _105  and  _106
REMARK   46  A    between atoms: _109  and  _111
REMARK   47  A    between atoms: _111  and  _112
REMARK   48  A    between atoms: _111  and  _114
REMARK   49  A    between atoms: _115  and  _116
REMARK   50  A    between atoms: _116  and  _117
REMARK   51  A    between atoms: _117  and  _118
REMARK   52  A    between atoms: _122  and  _124
REMARK   53  A    between atoms: _124  and  _125
REMARK   54  A    between atoms: _124  and  _127
REMARK   55  A    between atoms: _127  and  _128
REMARK   56  A    between atoms: _128  and  _129
REMARK   57  A    between atoms: _131  and  _133
REMARK   58  A    between atoms: _133  and  _134
REMARK   59  A    between atoms: _133  and  _136
REMARK   60  A    between atoms: _136  and  _137
REMARK   61  A    between atoms: _140  and  _142
REMARK   62  A    between atoms: _142  and  _143
REMARK   63  A    between atoms: _142  and  _145
REMARK   64  A    between atoms: _148  and  _150
REMARK   65  A    between atoms: _150  and  _151
REMARK   66  A    between atoms: _153  and  _155
REMARK   67  A    between atoms: _155  and  _156
REMARK   68  A    between atoms: _155  and  _158
REMARK   69  A    between atoms: _158  and  _159
REMARK   70  A    between atoms: _162  and  _164
REMARK   71  A    between atoms: _164  and  _165
REMARK   72  A    between atoms: _167  and  _169
REMARK   73  A    between atoms: _169  and  _170
REMARK   74  A    between atoms: _172  and  _174
REMARK   75  A    between atoms: _174  and  _175
REMARK   76  A    between atoms: _174  and  _177
REMARK   77  A    between atoms: _177  and  _178
REMARK   78  A    between atoms: _184  and  _186
REMARK   79  A    between atoms: _186  and  _187
REMARK   80  A    between atoms: _186  and  _189
REMARK   81  A    between atoms: _189  and  _190
REMARK   82  A    between atoms: _193  and  _195
REMARK   83  A    between atoms: _195  and  _196
REMARK   84  A    between atoms: _195  and  _198
REMARK   85  A    between atoms: _201  and  _203
REMARK   86  A    between atoms: _203  and  _204
REMARK   87  A    between atoms: _203  and  _206
REMARK   88  A    between atoms: _206  and  _207
REMARK   89  A    between atoms: _211  and  _212
REMARK   90  A    between atoms: _217  and  _219
REMARK   91  A    between atoms: _219  and  _220
REMARK   92  A    between atoms: _219  and  _222
REMARK   93  A    between atoms: _222  and  _223
REMARK   94  A    between atoms: _227  and  _228
REMARK   95  A    between atoms: _233  and  _235
REMARK   96  A    between atoms: _235  and  _236
REMARK   97  A    between atoms: _235  and  _238
REMARK   98  A    between atoms: _241  and  _243
REMARK   99  A    between atoms: _243  and  _244
REMARK  100  A    between atoms: _243  and  _246
REMARK  101  A    between atoms: _246  and  _247
REMARK  102  A    between atoms: _252  and  _254
REMARK  103  A    between atoms: _254  and  _255
REMARK  104  A    between atoms: _254  and  _257
REMARK  105  A    between atoms: _257  and  _258
REMARK  106  A    between atoms: _261  and  _263
REMARK  107  A    between atoms: _263  and  _264
REMARK  108  A    between atoms: _263  and  _266
REMARK  109  A    between atoms: _266  and  _267
REMARK  110  A    between atoms: _270  and  _272
REMARK  111  A    between atoms: _272  and  _273
REMARK  112  A    between atoms: _275  and  _277
REMARK  113  A    between atoms: _277  and  _278
REMARK  114  A    between atoms: _277  and  _280
REMARK  115  A    between atoms: _280  and  _281
REMARK  116  A    between atoms: _281  and  _282
REMARK  117  A    between atoms: _282  and  _283
REMARK  118  A    between atoms: _292  and  _294
REMARK  119  A    between atoms: _294  and  _295
REMARK  120  A    between atoms: _294  and  _297
REMARK  121  A    between atoms: _297  and  _298
REMARK  122  A    between atoms: _303  and  _305
REMARK  123  A    between atoms: _305  and  _306
REMARK  124  A    between atoms: _305  and  _308
REMARK  125  A    between atoms: _308  and  _309
REMARK  126  A    between atoms: _309  and  _310
REMARK  127  A    between atoms: _310  and  _311
REMARK  128  A    between atoms: _320  and  _322
REMARK  129  A    between atoms: _322  and  _323
REMARK  130  A    between atoms: _322  and  _325
REMARK  131  A    between atoms: _325  and  _326
REMARK  132  A    between atoms: _329  and  _331
REMARK  133  A    between atoms: _331  and  _332
REMARK  134  A    between atoms: _331  and  _334
REMARK  135  A    between atoms: _334  and  _335
REMARK  136  A    between atoms: _338  and  _340
REMARK  137  A    between atoms: _340  and  _341
REMARK  138  A    between atoms: _340  and  _343
REMARK  139  A    between atoms: _343  and  _344
REMARK  140  A    between atoms: _347  and  _349
REMARK  141  A    between atoms: _349  and  _350
REMARK  142  A    between atoms: _349  and  _352
REMARK  143  A    between atoms: _352  and  _353
REMARK  144  A    between atoms: _356  and  _358
REMARK  145  A    between atoms: _358  and  _359
REMARK  146  A    between atoms: _361  and  _363
REMARK  147  A    between atoms: _363  and  _364
REMARK  148  A    between atoms: _367  and  _369
REMARK  149  A    between atoms: _369  and  _370
REMARK  150  A    between atoms: _369  and  _372
REMARK  151  A    between atoms: _372  and  _373
REMARK  152  A    between atoms: _376  and  _378
REMARK  153  A    between atoms: _378  and  _379
REMARK  154  A    between atoms: _378  and  _381
REMARK  155  A    between atoms: _381  and  _382
REMARK  156  A    between atoms: _385  and  _387
REMARK  157  A    between atoms: _387  and  _388
REMARK  158  A    between atoms: _387  and  _390
REMARK  159  A    between atoms: _390  and  _391
REMARK  160  A    between atoms: _394  and  _396
REMARK  161  A    between atoms: _396  and  _397
REMARK  162  A    between atoms: _396  and  _399
REMARK  163  A    between atoms: _402  and  _404
REMARK  164  A    between atoms: _404  and  _405
REMARK  165  A    between atoms: _404  and  _407
REMARK  166  A    between atoms: _407  and  _408
REMARK  167  A    between atoms: _408  and  _409
REMARK  168  A    between atoms: _409  and  _410
REMARK  169  A    between atoms: _410  and  _411
REMARK  170  A    between atoms: _415  and  _417
REMARK  171  A    between atoms: _417  and  _418
REMARK  172  A    between atoms: _417  and  _420
REMARK  173  A    between atoms: _420  and  _421
REMARK  174  A    between atoms: _421  and  _422
REMARK  175  A    between atoms: _424  and  _426
REMARK  176  A    between atoms: _426  and  _427
REMARK  177  A    between atoms: _426  and  _429
REMARK  178  A    between atoms: _429  and  _430
REMARK  179  A    between atoms: _433  and  _435
REMARK  180  A    between atoms: _435  and  _436
REMARK  181  A    between atoms: _435  and  _438
REMARK  182  A    between atoms: _441  and  _443
REMARK  183  A    between atoms: _443  and  _444
REMARK  184  A    between atoms: _446  and  _448
REMARK  185  A    between atoms: _448  and  _449
REMARK  186  A    between atoms: _448  and  _451
REMARK  187  A    between atoms: _451  and  _452
REMARK  188  A    between atoms: _455  and  _457
REMARK  189  A    between atoms: _457  and  _458
REMARK  190  A    between atoms: _460  and  _462
REMARK  191  A    between atoms: _462  and  _463
REMARK  192  A    between atoms: _465  and  _467
REMARK  193  A    between atoms: _467  and  _468
REMARK  194  A    between atoms: _467  and  _470
REMARK  195  A    between atoms: _470  and  _471
REMARK  196  A    between atoms: _474  and  _476
REMARK  197  A    between atoms: _476  and  _477
REMARK  198  A    between atoms: _476  and  _479
REMARK  199  A    between atoms: _479  and  _480
REMARK  200  A    between atoms: _483  and  _485
REMARK  201  A    between atoms: _485  and  _486
REMARK  202  A    between atoms: _485  and  _488
REMARK  203  A    between atoms: _488  and  _489
REMARK  204  A    between atoms: _493  and  _494
REMARK  205  A    between atoms: _499  and  _501
REMARK  206  A    between atoms: _501  and  _502
REMARK  207  A    between atoms: _501  and  _504
REMARK  208  A    between atoms: _507  and  _509
REMARK  209  A    between atoms: _509  and  _510
REMARK  210  A    between atoms: _509  and  _512
REMARK  211  A    between atoms: _512  and  _513
REMARK  212  A    between atoms: _518  and  _520
REMARK  213  A    between atoms: _520  and  _521
REMARK  214  A    between atoms: _520  and  _523
REMARK  215  A    between atoms: _523  and  _524
REMARK  216  A    between atoms: _527  and  _529
REMARK  217  A    between atoms: _529  and  _530
REMARK  218  A    between atoms: _529  and  _532
REMARK  219  A    between atoms: _532  and  _533
REMARK  220  A    between atoms: _536  and  _538
REMARK  221  A    between atoms: _538  and  _539
REMARK  222  A    between atoms: _541  and  _543
REMARK  223  A    between atoms: _543  and  _544
REMARK  224  A    between atoms: _543  and  _546
REMARK  225  A    between atoms: _546  and  _547
REMARK  226  A    between atoms: _547  and  _548
REMARK  227  A    between atoms: _548  and  _549
REMARK  228  A    between atoms: _558  and  _560
REMARK  229  A    between atoms: _560  and  _561
REMARK  230  A    between atoms: _560  and  _563
REMARK  231  A    between atoms: _563  and  _564
REMARK                            x       y       z     vdW  Elec       q    Type
REMARK                         _______ _______ _______ _____ _____    ______ ____
ROOT
ATOM      1  O   HOH     1     -10.206  24.945  -8.134  0.00  0.00    +0.000 OA
ENDROOT
TORSDOF 0
REMARK  Name = ../refined-set-2016/3cyw/3cyw_pocket.pdb
REMARK  231 active torsions:
REMARK  status: ('A' for Active; 'I' for Inactive)
REMARK    1  A    between atoms: _1  and  _3
REMARK    2  A    between atoms: _3  and  _4
REMARK    3  A    between atoms: _3  and  _6
REMARK    4  A    between atoms: _6  and  _7
REMARK    5  A    between atoms: _7  and  _8
REMARK    6  A    between atoms: _8  and  _9
REMARK    7  A    between atoms: _18  and  _20
REMARK    8  A    between atoms: _20  and  _21
REMARK    9  A    between atoms: _20  and  _23
REMARK   10  A    between atoms: _23  and  _24
REMARK   11  A    between atoms: _27  and  _29
REMARK   12  A    between atoms: _29  and  _30
REMARK   13  A    between atoms: _29  and  _32
REMARK   14  A    between atoms: _32  and  _33
REMARK   15  A    between atoms: _36  and  _38
REMARK   16  A    between atoms: _38  and  _39
REMARK   17  A    between atoms: _38  and  _41
REMARK   18  A    between atoms: _41  and  _42
REMARK   19  A    between atoms: _45  and  _47
REMARK   20  A    between atoms: _47  and  _48
REMARK   21  A    between atoms: _47  and  _50
REMARK   22  A    between atoms: _50  and  _51
REMARK   23  A    between atoms: _54  and  _56
REMARK   24  A    between atoms: _56  and  _57
REMARK   25  A    between atoms: _59  and  _61
REMARK   26  A    between atoms: _61  and  _62
REMARK   27  A    between atoms: _65  and  _67
REMARK   28  A    between atoms: _67  and  _68
REMARK   29  A    between atoms: _67  and  _70
REMARK   30  A    between atoms: _70  and  _71
REMARK   31  A    between atoms: _74  and  _76
REMARK   32  A    between atoms: _76  and  _77
REMARK   33  A    between atoms: _76  and  _79
REMARK   34  A    between atoms: _79  and  _80
REMARK   35  A    between atoms: _83  and  _85
REMARK   36  A    between atoms: _85  and  _86
REMARK   37  A    between atoms: _85  and  _88
REMARK   38  A    between atoms: _88  and  _89
REMARK   39  A    between atoms: _92  and  _94
REMARK   40  A    between atoms: _94  and  _95
REMARK   41  A    between atoms: _94  and  _97
REMARK   42  A    between atoms: _100  and  _102
REMARK   43  A    between atoms: _102  and  _103
REMARK   44  A    between atoms: _102  and  _105
REMARK   45  A    between atoms: _105  and  _106
REMARK   46  A    between atoms: _109  and  _111
REMARK   47  A    between atoms: _111  and  _112
REMARK   48  A    between atoms: _111  and  _114
REMARK   49  A    between atoms: _115  and  _116
REMARK   50  A    between atoms: _116  and  _117
REMARK   51  A    between atoms: _117  and  _118
REMARK   52  A    between atoms: _122  and  _124
REMARK   53  A    between atoms: _124  and  _125
REMARK   54  A    between atoms: _124  and  _127
REMARK   55  A    between atoms: _127  and  _128
REMARK   56  A    between atoms: _128  and  _129
REMARK   57  A    between atoms: _131  and  _133
REMARK   58  A    between atoms: _133  and  _134
REMARK   59  A    between atoms: _133  and  _136
REMARK   60  A    between atoms: _136  and  _137
REMARK   61  A    between atoms: _140  and  _142
REMARK   62  A    between atoms: _142  and  _143
REMARK   63  A    between atoms: _142  and  _145
REMARK   64  A    between atoms: _148  and  _150
REMARK   65  A    between atoms: _150  and  _151
REMARK   66  A    between atoms: _153  and  _155
REMARK   67  A    between atoms: _155  and  _156
REMARK   68  A    between atoms: _155  and  _158
REMARK   69  A    between atoms: _158  and  _159
REMARK   70  A    between atoms: _162  and  _164
REMARK   71  A    between atoms: _164  and  _165
REMARK   72  A    between atoms: _167  and  _169
REMARK   73  A    between atoms: _169  and  _170
REMARK   74  A    between atoms: _172  and  _174
REMARK   75  A    between atoms: _174  and  _175
REMARK   76  A    between atoms: _174  and  _177
REMARK   77  A    between atoms: _177  and  _178
REMARK   78  A    between atoms: _184  and  _186
REMARK   79  A    between atoms: _186  and  _187
REMARK   80  A    between atoms: _186  and  _189
REMARK   81  A    between atoms: _189  and  _190
REMARK   82  A    between atoms: _193  and  _195
REMARK   83  A    between atoms: _195  and  _196
REMARK   84  A    between atoms: _195  and  _198
REMARK   85  A    between atoms: _201  and  _203
REMARK   86  A    between atoms: _203  and  _204
REMARK   87  A    between atoms: _203  and  _206
REMARK   88  A    between atoms: _206  and  _207
REMARK   89  A    between atoms: _211  and  _212
REMARK   90  A    between atoms: _217  and  _219
REMARK   91  A    between atoms: _219  and  _220
REMARK   92  A    between atoms: _219  and  _222
REMARK   93  A    between atoms: _222  and  _223
REMARK   94  A    between atoms: _227  and  _228
REMARK   95  A    between atoms: _233  and  _235
REMARK   96  A    between atoms: _235  and  _236
REMARK   97  A    between atoms: _235  and  _238
REMARK   98  A    between atoms: _241  and  _243
REMARK   99  A    between atoms: _243  and  _244
REMARK  100  A    between atoms: _243  and  _246
REMARK  101  A    between atoms: _246  and  _247
REMARK  102  A    between atoms: _252  and  _254
REMARK  103  A    between atoms: _254  and  _255
REMARK  104  A    between atoms: _254  and  _257
REMARK  105  A    between atoms: _257  and  _258
REMARK  106  A    between atoms: _261  and  _263
REMARK  107  A    between atoms: _263  and  _264
REMARK  108  A    between atoms: _263  and  _266
REMARK  109  A    between atoms: _266  and  _267
REMARK  110  A    between atoms: _270  and  _272
REMARK  111  A    between atoms: _272  and  _273
REMARK  112  A    between atoms: _275  and  _277
REMARK  113  A    between atoms: _277  and  _278
REMARK  114  A    between atoms: _277  and  _280
REMARK  115  A    between atoms: _280  and  _281
REMARK  116  A    between atoms: _281  and  _282
REMARK  117  A    between atoms: _282  and  _283
REMARK  118  A    between atoms: _292  and  _294
REMARK  119  A    between atoms: _294  and  _295
REMARK  120  A    between atoms: _294  and  _297
REMARK  121  A    between atoms: _297  and  _298
REMARK  122  A    between atoms: _303  and  _305
REMARK  123  A    between atoms: _305  and  _306
REMARK  124  A    between atoms: _305  and  _308
REMARK  125  A    between atoms: _308  and  _309
REMARK  126  A    between atoms: _309  and  _310
REMARK  127  A    between atoms: _310  and  _311
REMARK  128  A    between atoms: _320  and  _322
REMARK  129  A    between atoms: _322  and  _323
REMARK  130  A    between atoms: _322  and  _325
REMARK  131  A    between atoms: _325  and  _326
REMARK  132  A    between atoms: _329  and  _331
REMARK  133  A    between atoms: _331  and  _332
REMARK  134  A    between atoms: _331  and  _334
REMARK  135  A    between atoms: _334  and  _335
REMARK  136  A    between atoms: _338  and  _340
REMARK  137  A    between atoms: _340  and  _341
REMARK  138  A    between atoms: _340  and  _343
REMARK  139  A    between atoms: _343  and  _344
REMARK  140  A    between atoms: _347  and  _349
REMARK  141  A    between atoms: _349  and  _350
REMARK  142  A    between atoms: _349  and  _352
REMARK  143  A    between atoms: _352  and  _353
REMARK  144  A    between atoms: _356  and  _358
REMARK  145  A    between atoms: _358  and  _359
REMARK  146  A    between atoms: _361  and  _363
REMARK  147  A    between atoms: _363  and  _364
REMARK  148  A    between atoms: _367  and  _369
REMARK  149  A    between atoms: _369  and  _370
REMARK  150  A    between atoms: _369  and  _372
REMARK  151  A    between atoms: _372  and  _373
REMARK  152  A    between atoms: _376  and  _378
REMARK  153  A    between atoms: _378  and  _379
REMARK  154  A    between atoms: _378  and  _381
REMARK  155  A    between atoms: _381  and  _382
REMARK  156  A    between atoms: _385  and  _387
REMARK  157  A    between atoms: _387  and  _388
REMARK  158  A    between atoms: _387  and  _390
REMARK  159  A    between atoms: _390  and  _391
REMARK  160  A    between atoms: _394  and  _396
REMARK  161  A    between atoms: _396  and  _397
REMARK  162  A    between atoms: _396  and  _399
REMARK  163  A    between atoms: _402  and  _404
REMARK  164  A    between atoms: _404  and  _405
REMARK  165  A    between atoms: _404  and  _407
REMARK  166  A    between atoms: _407  and  _408
REMARK  167  A    between atoms: _408  and  _409
REMARK  168  A    between atoms: _409  and  _410
REMARK  169  A    between atoms: _410  and  _411
REMARK  170  A    between atoms: _415  and  _417
REMARK  171  A    between atoms: _417  and  _418
REMARK  172  A    between atoms: _417  and  _420
REMARK  173  A    between atoms: _420  and  _421
REMARK  174  A    between atoms: _421  and  _422
REMARK  175  A    between atoms: _424  and  _426
REMARK  176  A    between atoms: _426  and  _427
REMARK  177  A    between atoms: _426  and  _429
REMARK  178  A    between atoms: _429  and  _430
REMARK  179  A    between atoms: _433  and  _435
REMARK  180  A    between atoms: _435  and  _436
REMARK  181  A    between atoms: _435  and  _438
REMARK  182  A    between atoms: _441  and  _443
REMARK  183  A    between atoms: _443  and  _444
REMARK  184  A    between atoms: _446  and  _448
REMARK  185  A    between atoms: _448  and  _449
REMARK  186  A    between atoms: _448  and  _451
REMARK  187  A    between atoms: _451  and  _452
REMARK  188  A    between atoms: _455  and  _457
REMARK  189  A    between atoms: _457  and  _458
REMARK  190  A    between atoms: _460  and  _462
REMARK  191  A    between atoms: _462  and  _463
REMARK  192  A    between atoms: _465  and  _467
REMARK  193  A    between atoms: _467  and  _468
REMARK  194  A    between atoms: _467  and  _470
REMARK  195  A    between atoms: _470  and  _471
REMARK  196  A    between atoms: _474  and  _476
REMARK  197  A    between atoms: _476  and  _477
REMARK  198  A    between atoms: _476  and  _479
REMARK  199  A    between atoms: _479  and  _480
REMARK  200  A    between atoms: _483  and  _485
REMARK  201  A    between atoms: _485  and  _486
REMARK  202  A    between atoms: _485  and  _488
REMARK  203  A    between atoms: _488  and  _489
REMARK  204  A    between atoms: _493  and  _494
REMARK  205  A    between atoms: _499  and  _501
REMARK  206  A    between atoms: _501  and  _502
REMARK  207  A    between atoms: _501  and  _504
REMARK  208  A    between atoms: _507  and  _509
REMARK  209  A    between atoms: _509  and  _510
REMARK  210  A    between atoms: _509  and  _512
REMARK  211  A    between atoms: _512  and  _513
REMARK  212  A    between atoms: _518  and  _520
REMARK  213  A    between atoms: _520  and  _521
REMARK  214  A    between atoms: _520  and  _523
REMARK  215  A    between atoms: _523  and  _524
REMARK  216  A    between atoms: _527  and  _529
REMARK  217  A    between atoms: _529  and  _530
REMARK  218  A    between atoms: _529  and  _532
REMARK  219  A    between atoms: _532  and  _533
REMARK  220  A    between atoms: _536  and  _538
REMARK  221  A    between atoms: _538  and  _539
REMARK  222  A    between atoms: _541  and  _543
REMARK  223  A    between atoms: _543  and  _544
REMARK  224  A    between atoms: _543  and  _546
REMARK  225  A    between atoms: _546  and  _547
REMARK  226  A    between atoms: _547  and  _548
REMARK  227  A    between atoms: _548  and  _549
REMARK  228  A    between atoms: _558  and  _560
REMARK  229  A    between atoms: _560  and  _561
REMARK  230  A    between atoms: _560  and  _563
REMARK  231  A    between atoms: _563  and  _564
REMARK                            x       y       z     vdW  Elec       q    Type
REMARK                         _______ _______ _______ _____ _____    ______ ____
ROOT
ATOM      1  O   HOH     1      -8.300  17.625 -27.220  0.00  0.00    +0.000 OA
ENDROOT
TORSDOF 0
REMARK  Name = ../refined-set-2016/3cyw/3cyw_pocket.pdb
REMARK  231 active torsions:
REMARK  status: ('A' for Active; 'I' for Inactive)
REMARK    1  A    between atoms: _1  and  _3
REMARK    2  A    between atoms: _3  and  _4
REMARK    3  A    between atoms: _3  and  _6
REMARK    4  A    between atoms: _6  and  _7
REMARK    5  A    between atoms: _7  and  _8
REMARK    6  A    between atoms: _8  and  _9
REMARK    7  A    between atoms: _18  and  _20
REMARK    8  A    between atoms: _20  and  _21
REMARK    9  A    between atoms: _20  and  _23
REMARK   10  A    between atoms: _23  and  _24
REMARK   11  A    between atoms: _27  and  _29
REMARK   12  A    between atoms: _29  and  _30
REMARK   13  A    between atoms: _29  and  _32
REMARK   14  A    between atoms: _32  and  _33
REMARK   15  A    between atoms: _36  and  _38
REMARK   16  A    between atoms: _38  and  _39
REMARK   17  A    between atoms: _38  and  _41
REMARK   18  A    between atoms: _41  and  _42
REMARK   19  A    between atoms: _45  and  _47
REMARK   20  A    between atoms: _47  and  _48
REMARK   21  A    between atoms: _47  and  _50
REMARK   22  A    between atoms: _50  and  _51
REMARK   23  A    between atoms: _54  and  _56
REMARK   24  A    between atoms: _56  and  _57
REMARK   25  A    between atoms: _59  and  _61
REMARK   26  A    between atoms: _61  and  _62
REMARK   27  A    between atoms: _65  and  _67
REMARK   28  A    between atoms: _67  and  _68
REMARK   29  A    between atoms: _67  and  _70
REMARK   30  A    between atoms: _70  and  _71
REMARK   31  A    between atoms: _74  and  _76
REMARK   32  A    between atoms: _76  and  _77
REMARK   33  A    between atoms: _76  and  _79
REMARK   34  A    between atoms: _79  and  _80
REMARK   35  A    between atoms: _83  and  _85
REMARK   36  A    between atoms: _85  and  _86
REMARK   37  A    between atoms: _85  and  _88
REMARK   38  A    between atoms: _88  and  _89
REMARK   39  A    between atoms: _92  and  _94
REMARK   40  A    between atoms: _94  and  _95
REMARK   41  A    between atoms: _94  and  _97
REMARK   42  A    between atoms: _100  and  _102
REMARK   43  A    between atoms: _102  and  _103
REMARK   44  A    between atoms: _102  and  _105
REMARK   45  A    between atoms: _105  and  _106
REMARK   46  A    between atoms: _109  and  _111
REMARK   47  A    between atoms: _111  and  _112
REMARK   48  A    between atoms: _111  and  _114
REMARK   49  A    between atoms: _115  and  _116
REMARK   50  A    between atoms: _116  and  _117
REMARK   51  A    between atoms: _117  and  _118
REMARK   52  A    between atoms: _122  and  _124
REMARK   53  A    between atoms: _124  and  _125
REMARK   54  A    between atoms: _124  and  _127
REMARK   55  A    between atoms: _127  and  _128
REMARK   56  A    between atoms: _128  and  _129
REMARK   57  A    between atoms: _131  and  _133
REMARK   58  A    between atoms: _133  and  _134
REMARK   59  A    between atoms: _133  and  _136
REMARK   60  A    between atoms: _136  and  _137
REMARK   61  A    between atoms: _140  and  _142
REMARK   62  A    between atoms: _142  and  _143
REMARK   63  A    between atoms: _142  and  _145
REMARK   64  A    between atoms: _148  and  _150
REMARK   65  A    between atoms: _150  and  _151
REMARK   66  A    between atoms: _153  and  _155
REMARK   67  A    between atoms: _155  and  _156
REMARK   68  A    between atoms: _155  and  _158
REMARK   69  A    between atoms: _158  and  _159
REMARK   70  A    between atoms: _162  and  _164
REMARK   71  A    between atoms: _164  and  _165
REMARK   72  A    between atoms: _167  and  _169
REMARK   73  A    between atoms: _169  and  _170
REMARK   74  A    between atoms: _172  and  _174
REMARK   75  A    between atoms: _174  and  _175
REMARK   76  A    between atoms: _174  and  _177
REMARK   77  A    between atoms: _177  and  _178
REMARK   78  A    between atoms: _184  and  _186
REMARK   79  A    between atoms: _186  and  _187
REMARK   80  A    between atoms: _186  and  _189
REMARK   81  A    between atoms: _189  and  _190
REMARK   82  A    between atoms: _193  and  _195
REMARK   83  A    between atoms: _195  and  _196
REMARK   84  A    between atoms: _195  and  _198
REMARK   85  A    between atoms: _201  and  _203
REMARK   86  A    between atoms: _203  and  _204
REMARK   87  A    between atoms: _203  and  _206
REMARK   88  A    between atoms: _206  and  _207
REMARK   89  A    between atoms: _211  and  _212
REMARK   90  A    between atoms: _217  and  _219
REMARK   91  A    between atoms: _219  and  _220
REMARK   92  A    between atoms: _219  and  _222
REMARK   93  A    between atoms: _222  and  _223
REMARK   94  A    between atoms: _227  and  _228
REMARK   95  A    between atoms: _233  and  _235
REMARK   96  A    between atoms: _235  and  _236
REMARK   97  A    between atoms: _235  and  _238
REMARK   98  A    between atoms: _241  and  _243
REMARK   99  A    between atoms: _243  and  _244
REMARK  100  A    between atoms: _243  and  _246
REMARK  101  A    between atoms: _246  and  _247
REMARK  102  A    between atoms: _252  and  _254
REMARK  103  A    between atoms: _254  and  _255
REMARK  104  A    between atoms: _254  and  _257
REMARK  105  A    between atoms: _257  and  _258
REMARK  106  A    between atoms: _261  and  _263
REMARK  107  A    between atoms: _263  and  _264
REMARK  108  A    between atoms: _263  and  _266
REMARK  109  A    between atoms: _266  and  _267
REMARK  110  A    between atoms: _270  and  _272
REMARK  111  A    between atoms: _272  and  _273
REMARK  112  A    between atoms: _275  and  _277
REMARK  113  A    between atoms: _277  and  _278
REMARK  114  A    between atoms: _277  and  _280
REMARK  115  A    between atoms: _280  and  _281
REMARK  116  A    between atoms: _281  and  _282
REMARK  117  A    between atoms: _282  and  _283
REMARK  118  A    between atoms: _292  and  _294
REMARK  119  A    between atoms: _294  and  _295
REMARK  120  A    between atoms: _294  and  _297
REMARK  121  A    between atoms: _297  and  _298
REMARK  122  A    between atoms: _303  and  _305
REMARK  123  A    between atoms: _305  and  _306
REMARK  124  A    between atoms: _305  and  _308
REMARK  125  A    between atoms: _308  and  _309
REMARK  126  A    between atoms: _309  and  _310
REMARK  127  A    between atoms: _310  and  _311
REMARK  128  A    between atoms: _320  and  _322
REMARK  129  A    between atoms: _322  and  _323
REMARK  130  A    between atoms: _322  and  _325
REMARK  131  A    between atoms: _325  and  _326
REMARK  132  A    between atoms: _329  and  _331
REMARK  133  A    between atoms: _331  and  _332
REMARK  134  A    between atoms: _331  and  _334
REMARK  135  A    between atoms: _334  and  _335
REMARK  136  A    between atoms: _338  and  _340
REMARK  137  A    between atoms: _340  and  _341
REMARK  138  A    between atoms: _340  and  _343
REMARK  139  A    between atoms: _343  and  _344
REMARK  140  A    between atoms: _347  and  _349
REMARK  141  A    between atoms: _349  and  _350
REMARK  142  A    between atoms: _349  and  _352
REMARK  143  A    between atoms: _352  and  _353
REMARK  144  A    between atoms: _356  and  _358
REMARK  145  A    between atoms: _358  and  _359
REMARK  146  A    between atoms: _361  and  _363
REMARK  147  A    between atoms: _363  and  _364
REMARK  148  A    between atoms: _367  and  _369
REMARK  149  A    between atoms: _369  and  _370
REMARK  150  A    between atoms: _369  and  _372
REMARK  151  A    between atoms: _372  and  _373
REMARK  152  A    between atoms: _376  and  _378
REMARK  153  A    between atoms: _378  and  _379
REMARK  154  A    between atoms: _378  and  _381
REMARK  155  A    between atoms: _381  and  _382
REMARK  156  A    between atoms: _385  and  _387
REMARK  157  A    between atoms: _387  and  _388
REMARK  158  A    between atoms: _387  and  _390
REMARK  159  A    between atoms: _390  and  _391
REMARK  160  A    between atoms: _394  and  _396
REMARK  161  A    between atoms: _396  and  _397
REMARK  162  A    between atoms: _396  and  _399
REMARK  163  A    between atoms: _402  and  _404
REMARK  164  A    between atoms: _404  and  _405
REMARK  165  A    between atoms: _404  and  _407
REMARK  166  A    between atoms: _407  and  _408
REMARK  167  A    between atoms: _408  and  _409
REMARK  168  A    between atoms: _409  and  _410
REMARK  169  A    between atoms: _410  and  _411
REMARK  170  A    between atoms: _415  and  _417
REMARK  171  A    between atoms: _417  and  _418
REMARK  172  A    between atoms: _417  and  _420
REMARK  173  A    between atoms: _420  and  _421
REMARK  174  A    between atoms: _421  and  _422
REMARK  175  A    between atoms: _424  and  _426
REMARK  176  A    between atoms: _426  and  _427
REMARK  177  A    between atoms: _426  and  _429
REMARK  178  A    between atoms: _429  and  _430
REMARK  179  A    between atoms: _433  and  _435
REMARK  180  A    between atoms: _435  and  _436
REMARK  181  A    between atoms: _435  and  _438
REMARK  182  A    between atoms: _441  and  _443
REMARK  183  A    between atoms: _443  and  _444
REMARK  184  A    between atoms: _446  and  _448
REMARK  185  A    between atoms: _448  and  _449
REMARK  186  A    between atoms: _448  and  _451
REMARK  187  A    between atoms: _451  and  _452
REMARK  188  A    between atoms: _455  and  _457
REMARK  189  A    between atoms: _457  and  _458
REMARK  190  A    between atoms: _460  and  _462
REMARK  191  A    between atoms: _462  and  _463
REMARK  192  A    between atoms: _465  and  _467
REMARK  193  A    between atoms: _467  and  _468
REMARK  194  A    between atoms: _467  and  _470
REMARK  195  A    between atoms: _470  and  _471
REMARK  196  A    between atoms: _474  and  _476
REMARK  197  A    between atoms: _476  and  _477
REMARK  198  A    between atoms: _476  and  _479
REMARK  199  A    between atoms: _479  and  _480
REMARK  200  A    between atoms: _483  and  _485
REMARK  201  A    between atoms: _485  and  _486
REMARK  202  A    between atoms: _485  and  _488
REMARK  203  A    between atoms: _488  and  _489
REMARK  204  A    between atoms: _493  and  _494
REMARK  205  A    between atoms: _499  and  _501
REMARK  206  A    between atoms: _501  and  _502
REMARK  207  A    between atoms: _501  and  _504
REMARK  208  A    between atoms: _507  and  _509
REMARK  209  A    between atoms: _509  and  _510
REMARK  210  A    between atoms: _509  and  _512
REMARK  211  A    between atoms: _512  and  _513
REMARK  212  A    between atoms: _518  and  _520
REMARK  213  A    between atoms: _520  and  _521
REMARK  214  A    between atoms: _520  and  _523
REMARK  215  A    between atoms: _523  and  _524
REMARK  216  A    between atoms: _527  and  _529
REMARK  217  A    between atoms: _529  and  _530
REMARK  218  A    between atoms: _529  and  _532
REMARK  219  A    between atoms: _532  and  _533
REMARK  220  A    between atoms: _536  and  _538
REMARK  221  A    between atoms: _538  and  _539
REMARK  222  A    between atoms: _541  and  _543
REMARK  223  A    between atoms: _543  and  _544
REMARK  224  A    between atoms: _543  and  _546
REMARK  225  A    between atoms: _546  and  _547
REMARK  226  A    between atoms: _547  and  _548
REMARK  227  A    between atoms: _548  and  _549
REMARK  228  A    between atoms: _558  and  _560
REMARK  229  A    between atoms: _560  and  _561
REMARK  230  A    between atoms: _560  and  _563
REMARK  231  A    between atoms: _563  and  _564
REMARK                            x       y       z     vdW  Elec       q    Type
REMARK                         _______ _______ _______ _____ _____    ______ ____
ROOT
ATOM      1  O   HOH     1     -15.909  27.610  -8.787  0.00  0.00    +0.000 OA
ENDROOT
TORSDOF 0
REMARK  Name = ../refined-set-2016/3cyw/3cyw_pocket.pdb
REMARK  231 active torsions:
REMARK  status: ('A' for Active; 'I' for Inactive)
REMARK    1  A    between atoms: _1  and  _3
REMARK    2  A    between atoms: _3  and  _4
REMARK    3  A    between atoms: _3  and  _6
REMARK    4  A    between atoms: _6  and  _7
REMARK    5  A    between atoms: _7  and  _8
REMARK    6  A    between atoms: _8  and  _9
REMARK    7  A    between atoms: _18  and  _20
REMARK    8  A    between atoms: _20  and  _21
REMARK    9  A    between atoms: _20  and  _23
REMARK   10  A    between atoms: _23  and  _24
REMARK   11  A    between atoms: _27  and  _29
REMARK   12  A    between atoms: _29  and  _30
REMARK   13  A    between atoms: _29  and  _32
REMARK   14  A    between atoms: _32  and  _33
REMARK   15  A    between atoms: _36  and  _38
REMARK   16  A    between atoms: _38  and  _39
REMARK   17  A    between atoms: _38  and  _41
REMARK   18  A    between atoms: _41  and  _42
REMARK   19  A    between atoms: _45  and  _47
REMARK   20  A    between atoms: _47  and  _48
REMARK   21  A    between atoms: _47  and  _50
REMARK   22  A    between atoms: _50  and  _51
REMARK   23  A    between atoms: _54  and  _56
REMARK   24  A    between atoms: _56  and  _57
REMARK   25  A    between atoms: _59  and  _61
REMARK   26  A    between atoms: _61  and  _62
REMARK   27  A    between atoms: _65  and  _67
REMARK   28  A    between atoms: _67  and  _68
REMARK   29  A    between atoms: _67  and  _70
REMARK   30  A    between atoms: _70  and  _71
REMARK   31  A    between atoms: _74  and  _76
REMARK   32  A    between atoms: _76  and  _77
REMARK   33  A    between atoms: _76  and  _79
REMARK   34  A    between atoms: _79  and  _80
REMARK   35  A    between atoms: _83  and  _85
REMARK   36  A    between atoms: _85  and  _86
REMARK   37  A    between atoms: _85  and  _88
REMARK   38  A    between atoms: _88  and  _89
REMARK   39  A    between atoms: _92  and  _94
REMARK   40  A    between atoms: _94  and  _95
REMARK   41  A    between atoms: _94  and  _97
REMARK   42  A    between atoms: _100  and  _102
REMARK   43  A    between atoms: _102  and  _103
REMARK   44  A    between atoms: _102  and  _105
REMARK   45  A    between atoms: _105  and  _106
REMARK   46  A    between atoms: _109  and  _111
REMARK   47  A    between atoms: _111  and  _112
REMARK   48  A    between atoms: _111  and  _114
REMARK   49  A    between atoms: _115  and  _116
REMARK   50  A    between atoms: _116  and  _117
REMARK   51  A    between atoms: _117  and  _118
REMARK   52  A    between atoms: _122  and  _124
REMARK   53  A    between atoms: _124  and  _125
REMARK   54  A    between atoms: _124  and  _127
REMARK   55  A    between atoms: _127  and  _128
REMARK   56  A    between atoms: _128  and  _129
REMARK   57  A    between atoms: _131  and  _133
REMARK   58  A    between atoms: _133  and  _134
REMARK   59  A    between atoms: _133  and  _136
REMARK   60  A    between atoms: _136  and  _137
REMARK   61  A    between atoms: _140  and  _142
REMARK   62  A    between atoms: _142  and  _143
REMARK   63  A    between atoms: _142  and  _145
REMARK   64  A    between atoms: _148  and  _150
REMARK   65  A    between atoms: _150  and  _151
REMARK   66  A    between atoms: _153  and  _155
REMARK   67  A    between atoms: _155  and  _156
REMARK   68  A    between atoms: _155  and  _158
REMARK   69  A    between atoms: _158  and  _159
REMARK   70  A    between atoms: _162  and  _164
REMARK   71  A    between atoms: _164  and  _165
REMARK   72  A    between atoms: _167  and  _169
REMARK   73  A    between atoms: _169  and  _170
REMARK   74  A    between atoms: _172  and  _174
REMARK   75  A    between atoms: _174  and  _175
REMARK   76  A    between atoms: _174  and  _177
REMARK   77  A    between atoms: _177  and  _178
REMARK   78  A    between atoms: _184  and  _186
REMARK   79  A    between atoms: _186  and  _187
REMARK   80  A    between atoms: _186  and  _189
REMARK   81  A    between atoms: _189  and  _190
REMARK   82  A    between atoms: _193  and  _195
REMARK   83  A    between atoms: _195  and  _196
REMARK   84  A    between atoms: _195  and  _198
REMARK   85  A    between atoms: _201  and  _203
REMARK   86  A    between atoms: _203  and  _204
REMARK   87  A    between atoms: _203  and  _206
REMARK   88  A    between atoms: _206  and  _207
REMARK   89  A    between atoms: _211  and  _212
REMARK   90  A    between atoms: _217  and  _219
REMARK   91  A    between atoms: _219  and  _220
REMARK   92  A    between atoms: _219  and  _222
REMARK   93  A    between atoms: _222  and  _223
REMARK   94  A    between atoms: _227  and  _228
REMARK   95  A    between atoms: _233  and  _235
REMARK   96  A    between atoms: _235  and  _236
REMARK   97  A    between atoms: _235  and  _238
REMARK   98  A    between atoms: _241  and  _243
REMARK   99  A    between atoms: _243  and  _244
REMARK  100  A    between atoms: _243  and  _246
REMARK  101  A    between atoms: _246  and  _247
REMARK  102  A    between atoms: _252  and  _254
REMARK  103  A    between atoms: _254  and  _255
REMARK  104  A    between atoms: _254  and  _257
REMARK  105  A    between atoms: _257  and  _258
REMARK  106  A    between atoms: _261  and  _263
REMARK  107  A    between atoms: _263  and  _264
REMARK  108  A    between atoms: _263  and  _266
REMARK  109  A    between atoms: _266  and  _267
REMARK  110  A    between atoms: _270  and  _272
REMARK  111  A    between atoms: _272  and  _273
REMARK  112  A    between atoms: _275  and  _277
REMARK  113  A    between atoms: _277  and  _278
REMARK  114  A    between atoms: _277  and  _280
REMARK  115  A    between atoms: _280  and  _281
REMARK  116  A    between atoms: _281  and  _282
REMARK  117  A    between atoms: _282  and  _283
REMARK  118  A    between atoms: _292  and  _294
REMARK  119  A    between atoms: _294  and  _295
REMARK  120  A    between atoms: _294  and  _297
REMARK  121  A    between atoms: _297  and  _298
REMARK  122  A    between atoms: _303  and  _305
REMARK  123  A    between atoms: _305  and  _306
REMARK  124  A    between atoms: _305  and  _308
REMARK  125  A    between atoms: _308  and  _309
REMARK  126  A    between atoms: _309  and  _310
REMARK  127  A    between atoms: _310  and  _311
REMARK  128  A    between atoms: _320  and  _322
REMARK  129  A    between atoms: _322  and  _323
REMARK  130  A    between atoms: _322  and  _325
REMARK  131  A    between atoms: _325  and  _326
REMARK  132  A    between atoms: _329  and  _331
REMARK  133  A    between atoms: _331  and  _332
REMARK  134  A    between atoms: _331  and  _334
REMARK  135  A    between atoms: _334  and  _335
REMARK  136  A    between atoms: _338  and  _340
REMARK  137  A    between atoms: _340  and  _341
REMARK  138  A    between atoms: _340  and  _343
REMARK  139  A    between atoms: _343  and  _344
REMARK  140  A    between atoms: _347  and  _349
REMARK  141  A    between atoms: _349  and  _350
REMARK  142  A    between atoms: _349  and  _352
REMARK  143  A    between atoms: _352  and  _353
REMARK  144  A    between atoms: _356  and  _358
REMARK  145  A    between atoms: _358  and  _359
REMARK  146  A    between atoms: _361  and  _363
REMARK  147  A    between atoms: _363  and  _364
REMARK  148  A    between atoms: _367  and  _369
REMARK  149  A    between atoms: _369  and  _370
REMARK  150  A    between atoms: _369  and  _372
REMARK  151  A    between atoms: _372  and  _373
REMARK  152  A    between atoms: _376  and  _378
REMARK  153  A    between atoms: _378  and  _379
REMARK  154  A    between atoms: _378  and  _381
REMARK  155  A    between atoms: _381  and  _382
REMARK  156  A    between atoms: _385  and  _387
REMARK  157  A    between atoms: _387  and  _388
REMARK  158  A    between atoms: _387  and  _390
REMARK  159  A    between atoms: _390  and  _391
REMARK  160  A    between atoms: _394  and  _396
REMARK  161  A    between atoms: _396  and  _397
REMARK  162  A    between atoms: _396  and  _399
REMARK  163  A    between atoms: _402  and  _404
REMARK  164  A    between atoms: _404  and  _405
REMARK  165  A    between atoms: _404  and  _407
REMARK  166  A    between atoms: _407  and  _408
REMARK  167  A    between atoms: _408  and  _409
REMARK  168  A    between atoms: _409  and  _410
REMARK  169  A    between atoms: _410  and  _411
REMARK  170  A    between atoms: _415  and  _417
REMARK  171  A    between atoms: _417  and  _418
REMARK  172  A    between atoms: _417  and  _420
REMARK  173  A    between atoms: _420  and  _421
REMARK  174  A    between atoms: _421  and  _422
REMARK  175  A    between atoms: _424  and  _426
REMARK  176  A    between atoms: _426  and  _427
REMARK  177  A    between atoms: _426  and  _429
REMARK  178  A    between atoms: _429  and  _430
REMARK  179  A    between atoms: _433  and  _435
REMARK  180  A    between atoms: _435  and  _436
REMARK  181  A    between atoms: _435  and  _438
REMARK  182  A    between atoms: _441  and  _443
REMARK  183  A    between atoms: _443  and  _444
REMARK  184  A    between atoms: _446  and  _448
REMARK  185  A    between atoms: _448  and  _449
REMARK  186  A    between atoms: _448  and  _451
REMARK  187  A    between atoms: _451  and  _452
REMARK  188  A    between atoms: _455  and  _457
REMARK  189  A    between atoms: _457  and  _458
REMARK  190  A    between atoms: _460  and  _462
REMARK  191  A    between atoms: _462  and  _463
REMARK  192  A    between atoms: _465  and  _467
REMARK  193  A    between atoms: _467  and  _468
REMARK  194  A    between atoms: _467  and  _470
REMARK  195  A    between atoms: _470  and  _471
REMARK  196  A    between atoms: _474  and  _476
REMARK  197  A    between atoms: _476  and  _477
REMARK  198  A    between atoms: _476  and  _479
REMARK  199  A    between atoms: _479  and  _480
REMARK  200  A    between atoms: _483  and  _485
REMARK  201  A    between atoms: _485  and  _486
REMARK  202  A    between atoms: _485  and  _488
REMARK  203  A    between atoms: _488  and  _489
REMARK  204  A    between atoms: _493  and  _494
REMARK  205  A    between atoms: _499  and  _501
REMARK  206  A    between atoms: _501  and  _502
REMARK  207  A    between atoms: _501  and  _504
REMARK  208  A    between atoms: _507  and  _509
REMARK  209  A    between atoms: _509  and  _510
REMARK  210  A    between atoms: _509  and  _512
REMARK  211  A    between atoms: _512  and  _513
REMARK  212  A    between atoms: _518  and  _520
REMARK  213  A    between atoms: _520  and  _521
REMARK  214  A    between atoms: _520  and  _523
REMARK  215  A    between atoms: _523  and  _524
REMARK  216  A    between atoms: _527  and  _529
REMARK  217  A    between atoms: _529  and  _530
REMARK  218  A    between atoms: _529  and  _532
REMARK  219  A    between atoms: _532  and  _533
REMARK  220  A    between atoms: _536  and  _538
REMARK  221  A    between atoms: _538  and  _539
REMARK  222  A    between atoms: _541  and  _543
REMARK  223  A    between atoms: _543  and  _544
REMARK  224  A    between atoms: _543  and  _546
REMARK  225  A    between atoms: _546  and  _547
REMARK  226  A    between atoms: _547  and  _548
REMARK  227  A    between atoms: _548  and  _549
REMARK  228  A    between atoms: _558  and  _560
REMARK  229  A    between atoms: _560  and  _561
REMARK  230  A    between atoms: _560  and  _563
REMARK  231  A    between atoms: _563  and  _564
REMARK                            x       y       z     vdW  Elec       q    Type
REMARK                         _______ _______ _______ _____ _____    ______ ____
ROOT
ATOM      1  O   HOH     1     -20.712  28.169 -19.048  0.00  0.00    +0.000 OA
ENDROOT
TORSDOF 0
