REMARK  Name = ../refined-set-2016/3d1y/3d1y_pocket.pdb
REMARK  228 active torsions:
REMARK  status: ('A' for Active; 'I' for Inactive)
REMARK    1  A    between atoms: _1  and  _3
REMARK    2  A    between atoms: _3  and  _4
REMARK    3  A    between atoms: _3  and  _6
REMARK    4  A    between atoms: _6  and  _7
REMARK    5  A    between atoms: _7  and  _8
REMARK    6  A    between atoms: _8  and  _9
REMARK    7  A    between atoms: _18  and  _20
REMARK    8  A    between atoms: _20  and  _21
REMARK    9  A    between atoms: _20  and  _23
REMARK   10  A    between atoms: _23  and  _24
REMARK   11  A    between atoms: _27  and  _29
REMARK   12  A    between atoms: _29  and  _30
REMARK   13  A    between atoms: _29  and  _32
REMARK   14  A    between atoms: _32  and  _33
REMARK   15  A    between atoms: _36  and  _38
REMARK   16  A    between atoms: _38  and  _39
REMARK   17  A    between atoms: _38  and  _41
REMARK   18  A    between atoms: _41  and  _42
REMARK   19  A    between atoms: _45  and  _47
REMARK   20  A    between atoms: _47  and  _48
REMARK   21  A    between atoms: _47  and  _50
REMARK   22  A    between atoms: _50  and  _51
REMARK   23  A    between atoms: _54  and  _56
REMARK   24  A    between atoms: _56  and  _57
REMARK   25  A    between atoms: _59  and  _61
REMARK   26  A    between atoms: _61  and  _62
REMARK   27  A    between atoms: _65  and  _67
REMARK   28  A    between atoms: _67  and  _68
REMARK   29  A    between atoms: _67  and  _70
REMARK   30  A    between atoms: _70  and  _71
REMARK   31  A    between atoms: _74  and  _76
REMARK   32  A    between atoms: _76  and  _77
REMARK   33  A    between atoms: _76  and  _79
REMARK   34  A    between atoms: _79  and  _80
REMARK   35  A    between atoms: _83  and  _85
REMARK   36  A    between atoms: _85  and  _86
REMARK   37  A    between atoms: _85  and  _88
REMARK   38  A    between atoms: _88  and  _89
REMARK   39  A    between atoms: _92  and  _94
REMARK   40  A    between atoms: _94  and  _95
REMARK   41  A    between atoms: _94  and  _97
REMARK   42  A    between atoms: _100  and  _102
REMARK   43  A    between atoms: _102  and  _103
REMARK   44  A    between atoms: _102  and  _105
REMARK   45  A    between atoms: _105  and  _106
REMARK   46  A    between atoms: _106  and  _107
REMARK   47  A    between atoms: _107  and  _108
REMARK   48  A    between atoms: _108  and  _109
REMARK   49  A    between atoms: _113  and  _115
REMARK   50  A    between atoms: _115  and  _116
REMARK   51  A    between atoms: _115  and  _118
REMARK   52  A    between atoms: _118  and  _119
REMARK   53  A    between atoms: _119  and  _120
REMARK   54  A    between atoms: _122  and  _124
REMARK   55  A    between atoms: _124  and  _125
REMARK   56  A    between atoms: _124  and  _127
REMARK   57  A    between atoms: _127  and  _128
REMARK   58  A    between atoms: _131  and  _133
REMARK   59  A    between atoms: _133  and  _134
REMARK   60  A    between atoms: _136  and  _138
REMARK   61  A    between atoms: _138  and  _139
REMARK   62  A    between atoms: _141  and  _143
REMARK   63  A    between atoms: _143  and  _144
REMARK   64  A    between atoms: _143  and  _146
REMARK   65  A    between atoms: _146  and  _147
REMARK   66  A    between atoms: _150  and  _152
REMARK   67  A    between atoms: _152  and  _153
REMARK   68  A    between atoms: _155  and  _157
REMARK   69  A    between atoms: _157  and  _158
REMARK   70  A    between atoms: _160  and  _162
REMARK   71  A    between atoms: _162  and  _163
REMARK   72  A    between atoms: _162  and  _165
REMARK   73  A    between atoms: _165  and  _166
REMARK   74  A    between atoms: _172  and  _174
REMARK   75  A    between atoms: _174  and  _175
REMARK   76  A    between atoms: _174  and  _177
REMARK   77  A    between atoms: _180  and  _182
REMARK   78  A    between atoms: _182  and  _183
REMARK   79  A    between atoms: _182  and  _185
REMARK   80  A    between atoms: _188  and  _190
REMARK   81  A    between atoms: _190  and  _191
REMARK   82  A    between atoms: _190  and  _193
REMARK   83  A    between atoms: _193  and  _194
REMARK   84  A    between atoms: _198  and  _199
REMARK   85  A    between atoms: _204  and  _206
REMARK   86  A    between atoms: _206  and  _207
REMARK   87  A    between atoms: _206  and  _209
REMARK   88  A    between atoms: _209  and  _210
REMARK   89  A    between atoms: _214  and  _215
REMARK   90  A    between atoms: _220  and  _222
REMARK   91  A    between atoms: _222  and  _223
REMARK   92  A    between atoms: _222  and  _225
REMARK   93  A    between atoms: _228  and  _230
REMARK   94  A    between atoms: _230  and  _231
REMARK   95  A    between atoms: _230  and  _233
REMARK   96  A    between atoms: _233  and  _234
REMARK   97  A    between atoms: _239  and  _241
REMARK   98  A    between atoms: _241  and  _242
REMARK   99  A    between atoms: _241  and  _244
REMARK  100  A    between atoms: _244  and  _245
REMARK  101  A    between atoms: _248  and  _250
REMARK  102  A    between atoms: _250  and  _251
REMARK  103  A    between atoms: _250  and  _253
REMARK  104  A    between atoms: _253  and  _254
REMARK  105  A    between atoms: _257  and  _259
REMARK  106  A    between atoms: _259  and  _260
REMARK  107  A    between atoms: _262  and  _264
REMARK  108  A    between atoms: _264  and  _265
REMARK  109  A    between atoms: _264  and  _267
REMARK  110  A    between atoms: _267  and  _268
REMARK  111  A    between atoms: _268  and  _269
REMARK  112  A    between atoms: _269  and  _270
REMARK  113  A    between atoms: _279  and  _281
REMARK  114  A    between atoms: _281  and  _282
REMARK  115  A    between atoms: _281  and  _284
REMARK  116  A    between atoms: _284  and  _285
REMARK  117  A    between atoms: _290  and  _292
REMARK  118  A    between atoms: _292  and  _293
REMARK  119  A    between atoms: _292  and  _295
REMARK  120  A    between atoms: _295  and  _296
REMARK  121  A    between atoms: _296  and  _297
REMARK  122  A    between atoms: _297  and  _298
REMARK  123  A    between atoms: _307  and  _309
REMARK  124  A    between atoms: _309  and  _310
REMARK  125  A    between atoms: _309  and  _312
REMARK  126  A    between atoms: _312  and  _313
REMARK  127  A    between atoms: _316  and  _318
REMARK  128  A    between atoms: _318  and  _319
REMARK  129  A    between atoms: _318  and  _321
REMARK  130  A    between atoms: _321  and  _322
REMARK  131  A    between atoms: _325  and  _327
REMARK  132  A    between atoms: _327  and  _328
REMARK  133  A    between atoms: _327  and  _330
REMARK  134  A    between atoms: _330  and  _331
REMARK  135  A    between atoms: _334  and  _336
REMARK  136  A    between atoms: _336  and  _337
REMARK  137  A    between atoms: _336  and  _339
REMARK  138  A    between atoms: _339  and  _340
REMARK  139  A    between atoms: _343  and  _345
REMARK  140  A    between atoms: _345  and  _346
REMARK  141  A    between atoms: _348  and  _350
REMARK  142  A    between atoms: _350  and  _351
REMARK  143  A    between atoms: _354  and  _356
REMARK  144  A    between atoms: _356  and  _357
REMARK  145  A    between atoms: _356  and  _359
REMARK  146  A    between atoms: _359  and  _360
REMARK  147  A    between atoms: _363  and  _365
REMARK  148  A    between atoms: _365  and  _366
REMARK  149  A    between atoms: _365  and  _368
REMARK  150  A    between atoms: _368  and  _369
REMARK  151  A    between atoms: _372  and  _374
REMARK  152  A    between atoms: _374  and  _375
REMARK  153  A    between atoms: _374  and  _377
REMARK  154  A    between atoms: _377  and  _378
REMARK  155  A    between atoms: _381  and  _383
REMARK  156  A    between atoms: _383  and  _384
REMARK  157  A    between atoms: _383  and  _386
REMARK  158  A    between atoms: _389  and  _391
REMARK  159  A    between atoms: _391  and  _392
REMARK  160  A    between atoms: _391  and  _394
REMARK  161  A    between atoms: _394  and  _395
REMARK  162  A    between atoms: _395  and  _396
REMARK  163  A    between atoms: _396  and  _397
REMARK  164  A    between atoms: _397  and  _398
REMARK  165  A    between atoms: _402  and  _404
REMARK  166  A    between atoms: _404  and  _405
REMARK  167  A    between atoms: _404  and  _407
REMARK  168  A    between atoms: _407  and  _408
REMARK  169  A    between atoms: _408  and  _409
REMARK  170  A    between atoms: _411  and  _413
REMARK  171  A    between atoms: _413  and  _414
REMARK  172  A    between atoms: _413  and  _416
REMARK  173  A    between atoms: _416  and  _417
REMARK  174  A    between atoms: _420  and  _422
REMARK  175  A    between atoms: _422  and  _423
REMARK  176  A    between atoms: _425  and  _427
REMARK  177  A    between atoms: _427  and  _428
REMARK  178  A    between atoms: _430  and  _432
REMARK  179  A    between atoms: _432  and  _433
REMARK  180  A    between atoms: _432  and  _435
REMARK  181  A    between atoms: _435  and  _436
REMARK  182  A    between atoms: _439  and  _441
REMARK  183  A    between atoms: _441  and  _442
REMARK  184  A    between atoms: _444  and  _446
REMARK  185  A    between atoms: _446  and  _447
REMARK  186  A    between atoms: _449  and  _451
REMARK  187  A    between atoms: _451  and  _452
REMARK  188  A    between atoms: _451  and  _454
REMARK  189  A    between atoms: _454  and  _455
REMARK  190  A    between atoms: _461  and  _463
REMARK  191  A    between atoms: _463  and  _464
REMARK  192  A    between atoms: _463  and  _466
REMARK  193  A    between atoms: _469  and  _471
REMARK  194  A    between atoms: _471  and  _472
REMARK  195  A    between atoms: _471  and  _474
REMARK  196  A    between atoms: _477  and  _479
REMARK  197  A    between atoms: _479  and  _480
REMARK  198  A    between atoms: _479  and  _482
REMARK  199  A    between atoms: _482  and  _483
REMARK  200  A    between atoms: _487  and  _488
REMARK  201  A    between atoms: _493  and  _495
REMARK  202  A    between atoms: _495  and  _496
REMARK  203  A    between atoms: _495  and  _498
REMARK  204  A    between atoms: _498  and  _499
REMARK  205  A    between atoms: _503  and  _504
REMARK  206  A    between atoms: _509  and  _511
REMARK  207  A    between atoms: _511  and  _512
REMARK  208  A    between atoms: _511  and  _514
REMARK  209  A    between atoms: _517  and  _519
REMARK  210  A    between atoms: _519  and  _520
REMARK  211  A    between atoms: _519  and  _522
REMARK  212  A    between atoms: _522  and  _523
REMARK  213  A    between atoms: _528  and  _530
REMARK  214  A    between atoms: _530  and  _531
REMARK  215  A    between atoms: _530  and  _533
REMARK  216  A    between atoms: _533  and  _534
REMARK  217  A    between atoms: _537  and  _539
REMARK  218  A    between atoms: _539  and  _540
REMARK  219  A    between atoms: _539  and  _542
REMARK  220  A    between atoms: _542  and  _543
REMARK  221  A    between atoms: _546  and  _548
REMARK  222  A    between atoms: _548  and  _549
REMARK  223  A    between atoms: _551  and  _553
REMARK  224  A    between atoms: _553  and  _554
REMARK  225  A    between atoms: _553  and  _556
REMARK  226  A    between atoms: _556  and  _557
REMARK  227  A    between atoms: _557  and  _558
REMARK  228  A    between atoms: _558  and  _559
REMARK                            x       y       z     vdW  Elec       q    Type
REMARK                         _______ _______ _______ _____ _____    ______ ____
ROOT
ATOM      1  NE  ARG A   1       6.033  20.618  15.293  0.00  0.00    -0.265 N 
ATOM      2  HE  ARG A   1       6.405  20.527  16.260  0.00  0.00    +0.259 HD
ATOM      3  CZ  ARG A   1       5.993  19.536  14.546  0.00  0.00    +0.342 C 
ATOM      4  NH2 ARG A   1       6.419  18.390  15.039  0.00  0.00    -0.292 N 
ATOM      5 HH21 ARG A   1       6.783  18.346  16.012  0.00  0.00    +0.255 HD
ATOM      6 HH22 ARG A   1       6.391  17.530  14.455  0.00  0.00    +0.255 HD
ATOM      7  NH1 ARG A   1       5.552  19.510  13.302  0.00  0.00    -0.292 N 
ATOM      8 HH11 ARG A   1       5.207  20.383  12.854  0.00  0.00    +0.255 HD
ATOM      9 HH12 ARG A   1       5.549  18.616  12.770  0.00  0.00    +0.255 HD
ENDROOT
BRANCH   1  10
ATOM     10  CD  ARG A   1       5.584  21.956  14.850  0.00  0.00    +0.174 C 
BRANCH  10  11
ATOM     11  CG  ARG A   1       5.038  22.721  16.026  0.00  0.00    +0.045 C 
BRANCH  11  12
ATOM     12  CB  ARG A   1       4.448  24.047  15.662  0.00  0.00    +0.029 C 
BRANCH  12  13
ATOM     13  CA  ARG A   1       3.870  24.880  16.810  0.00  0.00    +0.133 C 
BRANCH  13  14
ATOM     14  N   ARG A   1       2.648  24.191  17.317  0.00  0.00    -0.239 NA
ATOM     15  H   ARG A   1       2.331  23.292  16.900  0.00  0.00    +0.142 HD
ENDBRANCH  13  14
BRANCH  13  16
ATOM     16  C   ARG A   1       3.573  26.270  16.358  0.00  0.00    +0.224 C 
ATOM     17  O   ARG A   1       2.573  26.503  15.646  0.00  0.00    -0.287 OA
ENDBRANCH  13  16
ENDBRANCH  12  13
ENDBRANCH  11  12
ENDBRANCH  10  11
ENDBRANCH   1  10
TORSDOF 6
REMARK  Name = ../refined-set-2016/3d1y/3d1y_pocket.pdb
REMARK  228 active torsions:
REMARK  status: ('A' for Active; 'I' for Inactive)
REMARK    1  A    between atoms: _1  and  _3
REMARK    2  A    between atoms: _3  and  _4
REMARK    3  A    between atoms: _3  and  _6
REMARK    4  A    between atoms: _6  and  _7
REMARK    5  A    between atoms: _7  and  _8
REMARK    6  A    between atoms: _8  and  _9
REMARK    7  A    between atoms: _18  and  _20
REMARK    8  A    between atoms: _20  and  _21
REMARK    9  A    between atoms: _20  and  _23
REMARK   10  A    between atoms: _23  and  _24
REMARK   11  A    between atoms: _27  and  _29
REMARK   12  A    between atoms: _29  and  _30
REMARK   13  A    between atoms: _29  and  _32
REMARK   14  A    between atoms: _32  and  _33
REMARK   15  A    between atoms: _36  and  _38
REMARK   16  A    between atoms: _38  and  _39
REMARK   17  A    between atoms: _38  and  _41
REMARK   18  A    between atoms: _41  and  _42
REMARK   19  A    between atoms: _45  and  _47
REMARK   20  A    between atoms: _47  and  _48
REMARK   21  A    between atoms: _47  and  _50
REMARK   22  A    between atoms: _50  and  _51
REMARK   23  A    between atoms: _54  and  _56
REMARK   24  A    between atoms: _56  and  _57
REMARK   25  A    between atoms: _59  and  _61
REMARK   26  A    between atoms: _61  and  _62
REMARK   27  A    between atoms: _65  and  _67
REMARK   28  A    between atoms: _67  and  _68
REMARK   29  A    between atoms: _67  and  _70
REMARK   30  A    between atoms: _70  and  _71
REMARK   31  A    between atoms: _74  and  _76
REMARK   32  A    between atoms: _76  and  _77
REMARK   33  A    between atoms: _76  and  _79
REMARK   34  A    between atoms: _79  and  _80
REMARK   35  A    between atoms: _83  and  _85
REMARK   36  A    between atoms: _85  and  _86
REMARK   37  A    between atoms: _85  and  _88
REMARK   38  A    between atoms: _88  and  _89
REMARK   39  A    between atoms: _92  and  _94
REMARK   40  A    between atoms: _94  and  _95
REMARK   41  A    between atoms: _94  and  _97
REMARK   42  A    between atoms: _100  and  _102
REMARK   43  A    between atoms: _102  and  _103
REMARK   44  A    between atoms: _102  and  _105
REMARK   45  A    between atoms: _105  and  _106
REMARK   46  A    between atoms: _106  and  _107
REMARK   47  A    between atoms: _107  and  _108
REMARK   48  A    between atoms: _108  and  _109
REMARK   49  A    between atoms: _113  and  _115
REMARK   50  A    between atoms: _115  and  _116
REMARK   51  A    between atoms: _115  and  _118
REMARK   52  A    between atoms: _118  and  _119
REMARK   53  A    between atoms: _119  and  _120
REMARK   54  A    between atoms: _122  and  _124
REMARK   55  A    between atoms: _124  and  _125
REMARK   56  A    between atoms: _124  and  _127
REMARK   57  A    between atoms: _127  and  _128
REMARK   58  A    between atoms: _131  and  _133
REMARK   59  A    between atoms: _133  and  _134
REMARK   60  A    between atoms: _136  and  _138
REMARK   61  A    between atoms: _138  and  _139
REMARK   62  A    between atoms: _141  and  _143
REMARK   63  A    between atoms: _143  and  _144
REMARK   64  A    between atoms: _143  and  _146
REMARK   65  A    between atoms: _146  and  _147
REMARK   66  A    between atoms: _150  and  _152
REMARK   67  A    between atoms: _152  and  _153
REMARK   68  A    between atoms: _155  and  _157
REMARK   69  A    between atoms: _157  and  _158
REMARK   70  A    between atoms: _160  and  _162
REMARK   71  A    between atoms: _162  and  _163
REMARK   72  A    between atoms: _162  and  _165
REMARK   73  A    between atoms: _165  and  _166
REMARK   74  A    between atoms: _172  and  _174
REMARK   75  A    between atoms: _174  and  _175
REMARK   76  A    between atoms: _174  and  _177
REMARK   77  A    between atoms: _180  and  _182
REMARK   78  A    between atoms: _182  and  _183
REMARK   79  A    between atoms: _182  and  _185
REMARK   80  A    between atoms: _188  and  _190
REMARK   81  A    between atoms: _190  and  _191
REMARK   82  A    between atoms: _190  and  _193
REMARK   83  A    between atoms: _193  and  _194
REMARK   84  A    between atoms: _198  and  _199
REMARK   85  A    between atoms: _204  and  _206
REMARK   86  A    between atoms: _206  and  _207
REMARK   87  A    between atoms: _206  and  _209
REMARK   88  A    between atoms: _209  and  _210
REMARK   89  A    between atoms: _214  and  _215
REMARK   90  A    between atoms: _220  and  _222
REMARK   91  A    between atoms: _222  and  _223
REMARK   92  A    between atoms: _222  and  _225
REMARK   93  A    between atoms: _228  and  _230
REMARK   94  A    between atoms: _230  and  _231
REMARK   95  A    between atoms: _230  and  _233
REMARK   96  A    between atoms: _233  and  _234
REMARK   97  A    between atoms: _239  and  _241
REMARK   98  A    between atoms: _241  and  _242
REMARK   99  A    between atoms: _241  and  _244
REMARK  100  A    between atoms: _244  and  _245
REMARK  101  A    between atoms: _248  and  _250
REMARK  102  A    between atoms: _250  and  _251
REMARK  103  A    between atoms: _250  and  _253
REMARK  104  A    between atoms: _253  and  _254
REMARK  105  A    between atoms: _257  and  _259
REMARK  106  A    between atoms: _259  and  _260
REMARK  107  A    between atoms: _262  and  _264
REMARK  108  A    between atoms: _264  and  _265
REMARK  109  A    between atoms: _264  and  _267
REMARK  110  A    between atoms: _267  and  _268
REMARK  111  A    between atoms: _268  and  _269
REMARK  112  A    between atoms: _269  and  _270
REMARK  113  A    between atoms: _279  and  _281
REMARK  114  A    between atoms: _281  and  _282
REMARK  115  A    between atoms: _281  and  _284
REMARK  116  A    between atoms: _284  and  _285
REMARK  117  A    between atoms: _290  and  _292
REMARK  118  A    between atoms: _292  and  _293
REMARK  119  A    between atoms: _292  and  _295
REMARK  120  A    between atoms: _295  and  _296
REMARK  121  A    between atoms: _296  and  _297
REMARK  122  A    between atoms: _297  and  _298
REMARK  123  A    between atoms: _307  and  _309
REMARK  124  A    between atoms: _309  and  _310
REMARK  125  A    between atoms: _309  and  _312
REMARK  126  A    between atoms: _312  and  _313
REMARK  127  A    between atoms: _316  and  _318
REMARK  128  A    between atoms: _318  and  _319
REMARK  129  A    between atoms: _318  and  _321
REMARK  130  A    between atoms: _321  and  _322
REMARK  131  A    between atoms: _325  and  _327
REMARK  132  A    between atoms: _327  and  _328
REMARK  133  A    between atoms: _327  and  _330
REMARK  134  A    between atoms: _330  and  _331
REMARK  135  A    between atoms: _334  and  _336
REMARK  136  A    between atoms: _336  and  _337
REMARK  137  A    between atoms: _336  and  _339
REMARK  138  A    between atoms: _339  and  _340
REMARK  139  A    between atoms: _343  and  _345
REMARK  140  A    between atoms: _345  and  _346
REMARK  141  A    between atoms: _348  and  _350
REMARK  142  A    between atoms: _350  and  _351
REMARK  143  A    between atoms: _354  and  _356
REMARK  144  A    between atoms: _356  and  _357
REMARK  145  A    between atoms: _356  and  _359
REMARK  146  A    between atoms: _359  and  _360
REMARK  147  A    between atoms: _363  and  _365
REMARK  148  A    between atoms: _365  and  _366
REMARK  149  A    between atoms: _365  and  _368
REMARK  150  A    between atoms: _368  and  _369
REMARK  151  A    between atoms: _372  and  _374
REMARK  152  A    between atoms: _374  and  _375
REMARK  153  A    between atoms: _374  and  _377
REMARK  154  A    between atoms: _377  and  _378
REMARK  155  A    between atoms: _381  and  _383
REMARK  156  A    between atoms: _383  and  _384
REMARK  157  A    between atoms: _383  and  _386
REMARK  158  A    between atoms: _389  and  _391
REMARK  159  A    between atoms: _391  and  _392
REMARK  160  A    between atoms: _391  and  _394
REMARK  161  A    between atoms: _394  and  _395
REMARK  162  A    between atoms: _395  and  _396
REMARK  163  A    between atoms: _396  and  _397
REMARK  164  A    between atoms: _397  and  _398
REMARK  165  A    between atoms: _402  and  _404
REMARK  166  A    between atoms: _404  and  _405
REMARK  167  A    between atoms: _404  and  _407
REMARK  168  A    between atoms: _407  and  _408
REMARK  169  A    between atoms: _408  and  _409
REMARK  170  A    between atoms: _411  and  _413
REMARK  171  A    between atoms: _413  and  _414
REMARK  172  A    between atoms: _413  and  _416
REMARK  173  A    between atoms: _416  and  _417
REMARK  174  A    between atoms: _420  and  _422
REMARK  175  A    between atoms: _422  and  _423
REMARK  176  A    between atoms: _425  and  _427
REMARK  177  A    between atoms: _427  and  _428
REMARK  178  A    between atoms: _430  and  _432
REMARK  179  A    between atoms: _432  and  _433
REMARK  180  A    between atoms: _432  and  _435
REMARK  181  A    between atoms: _435  and  _436
REMARK  182  A    between atoms: _439  and  _441
REMARK  183  A    between atoms: _441  and  _442
REMARK  184  A    between atoms: _444  and  _446
REMARK  185  A    between atoms: _446  and  _447
REMARK  186  A    between atoms: _449  and  _451
REMARK  187  A    between atoms: _451  and  _452
REMARK  188  A    between atoms: _451  and  _454
REMARK  189  A    between atoms: _454  and  _455
REMARK  190  A    between atoms: _461  and  _463
REMARK  191  A    between atoms: _463  and  _464
REMARK  192  A    between atoms: _463  and  _466
REMARK  193  A    between atoms: _469  and  _471
REMARK  194  A    between atoms: _471  and  _472
REMARK  195  A    between atoms: _471  and  _474
REMARK  196  A    between atoms: _477  and  _479
REMARK  197  A    between atoms: _479  and  _480
REMARK  198  A    between atoms: _479  and  _482
REMARK  199  A    between atoms: _482  and  _483
REMARK  200  A    between atoms: _487  and  _488
REMARK  201  A    between atoms: _493  and  _495
REMARK  202  A    between atoms: _495  and  _496
REMARK  203  A    between atoms: _495  and  _498
REMARK  204  A    between atoms: _498  and  _499
REMARK  205  A    between atoms: _503  and  _504
REMARK  206  A    between atoms: _509  and  _511
REMARK  207  A    between atoms: _511  and  _512
REMARK  208  A    between atoms: _511  and  _514
REMARK  209  A    between atoms: _517  and  _519
REMARK  210  A    between atoms: _519  and  _520
REMARK  211  A    between atoms: _519  and  _522
REMARK  212  A    between atoms: _522  and  _523
REMARK  213  A    between atoms: _528  and  _530
REMARK  214  A    between atoms: _530  and  _531
REMARK  215  A    between atoms: _530  and  _533
REMARK  216  A    between atoms: _533  and  _534
REMARK  217  A    between atoms: _537  and  _539
REMARK  218  A    between atoms: _539  and  _540
REMARK  219  A    between atoms: _539  and  _542
REMARK  220  A    between atoms: _542  and  _543
REMARK  221  A    between atoms: _546  and  _548
REMARK  222  A    between atoms: _548  and  _549
REMARK  223  A    between atoms: _551  and  _553
REMARK  224  A    between atoms: _553  and  _554
REMARK  225  A    between atoms: _553  and  _556
REMARK  226  A    between atoms: _556  and  _557
REMARK  227  A    between atoms: _557  and  _558
REMARK  228  A    between atoms: _558  and  _559
REMARK                            x       y       z     vdW  Elec       q    Type
REMARK                         _______ _______ _______ _____ _____    ______ ____
ROOT
ATOM      1  C   GLY A   5      16.817  28.204  19.949  0.00  0.00    +0.243 C 
ATOM      2  O   GLY A   5      17.781  27.410  20.051  0.00  0.00    -0.273 OA
ATOM      3  N   ALA A   6      16.636  28.973  18.885  0.00  0.00    -0.297 N 
ATOM      4  H   ALA A   6      15.787  29.571  18.831  0.00  0.00    +0.150 HD
ENDROOT
BRANCH   3   5
ATOM      5  CA  ALA A   6      17.599  29.004  17.783  0.00  0.00    +0.149 C 
ATOM      6  CB  ALA A   6      16.902  28.790  16.468  0.00  0.00    +0.031 C 
BRANCH   5   7
ATOM      7  C   ALA A   6      18.316  30.329  17.761  0.00  0.00    +0.241 C 
ATOM      8  O   ALA A   6      17.714  31.394  17.756  0.00  0.00    -0.273 OA
ATOM      9  N   ASP A   7      19.655  30.266  17.751  0.00  0.00    -0.297 N 
ATOM     10  H   ASP A   7      20.131  29.347  17.856  0.00  0.00    +0.150 HD
BRANCH   9  11
ATOM     11  CA  ASP A   7      20.440  31.471  17.595  0.00  0.00    +0.160 C 
BRANCH  11  12
ATOM     12  C   ASP A   7      20.218  32.099  16.223  0.00  0.00    +0.241 C 
ATOM     13  O   ASP A   7      20.227  33.332  16.085  0.00  0.00    -0.273 OA
ATOM     14  N   ASP A   8      20.078  31.256  15.206  0.00  0.00    -0.297 N 
ATOM     15  H   ASP A   8      19.926  30.252  15.431  0.00  0.00    +0.150 HD
BRANCH  14  16
ATOM     16  CA  ASP A   8      20.122  31.635  13.786  0.00  0.00    +0.160 C 
BRANCH  16  17
ATOM     17  C   ASP A   8      18.794  31.338  13.111  0.00  0.00    +0.241 C 
ATOM     18  O   ASP A   8      18.025  30.501  13.546  0.00  0.00    -0.273 OA
ATOM     19  N   THR A   9      18.596  31.989  11.984  0.00  0.00    -0.295 N 
ATOM     20  H   THR A   9      19.283  32.729  11.734  0.00  0.00    +0.150 HD
BRANCH  19  21
ATOM     21  CA  THR A   9      17.497  31.760  11.058  0.00  0.00    +0.176 C 
BRANCH  21  22
ATOM     22  C   THR A   9      17.984  30.835   9.954  0.00  0.00    +0.243 C 
ATOM     23  N   VAL A  10      17.289  29.724   9.734  0.00  0.00    -0.298 N 
ATOM     24  H   VAL A  10      16.396  29.593  10.251  0.00  0.00    +0.150 HD
ATOM     25  O   THR A   9      19.008  31.116   9.329  0.00  0.00    -0.273 OA
BRANCH  23  26
ATOM     26  CA  VAL A  10      17.707  28.682   8.811  0.00  0.00    +0.137 C 
BRANCH  26  27
ATOM     27  CB  VAL A  10      18.228  27.441   9.561  0.00  0.00    +0.026 C 
ATOM     28  CG2 VAL A  10      19.141  27.801  10.721  0.00  0.00    +0.002 C 
ATOM     29  CG1 VAL A  10      18.925  26.535   8.539  0.00  0.00    +0.002 C 
ENDBRANCH  26  27
BRANCH  26  30
ATOM     30  C   VAL A  10      16.520  28.337   7.920  0.00  0.00    +0.227 C 
ATOM     31  O   VAL A  10      15.453  27.964   8.415  0.00  0.00    -0.286 OA
ENDBRANCH  26  30
ENDBRANCH  23  26
ENDBRANCH  21  22
BRANCH  21  32
ATOM     32  CB  THR A   9      16.992  33.097  10.523  0.00  0.00    +0.137 C 
ATOM     33  CG2 THR A   9      16.002  32.937   9.433  0.00  0.00    +0.034 C 
BRANCH  32  34
ATOM     34  OG1 THR A   9      16.410  33.814  11.612  0.00  0.00    -0.382 OA
ATOM     35  HG1 THR A   9      17.094  33.961  12.312  0.00  0.00    +0.210 HD
ENDBRANCH  32  34
ENDBRANCH  21  32
ENDBRANCH  19  21
ENDBRANCH  16  17
BRANCH  16  36
ATOM     36  CB  ASP A   8      21.226  30.820  13.092  0.00  0.00    +0.143 C 
BRANCH  36  37
ATOM     37  CG  ASP A   8      22.566  30.916  13.749  0.00  0.00    +0.367 C 
ATOM     38  OD2 ASP A   8      23.175  29.854  14.027  0.00  0.00    -0.246 OA
ATOM     39  OD1 ASP A   8      23.052  32.021  14.000  0.00  0.00    -0.246 OA
ENDBRANCH  36  37
ENDBRANCH  16  36
ENDBRANCH  14  16
ENDBRANCH  11  12
BRANCH  11  40
ATOM     40  CB  ASP A   7      21.930  31.164  17.734  0.00  0.00    +0.143 C 
BRANCH  40  41
ATOM     41  CG  ASP A   7      22.392  30.702  19.100  0.00  0.00    +0.367 C 
ATOM     42  OD2 ASP A   7      21.690  30.841  20.123  0.00  0.00    -0.246 OA
ATOM     43  OD1 ASP A   7      23.578  30.260  19.160  0.00  0.00    -0.246 OA
ENDBRANCH  40  41
ENDBRANCH  11  40
ENDBRANCH   9  11
ENDBRANCH   5   7
ENDBRANCH   3   5
BRANCH   1  44
ATOM     44  CA  GLY A   5      15.822  28.276  21.060  0.00  0.00    +0.176 C 
BRANCH  44  47
ATOM     45  C   THR A   4      14.593  30.385  21.021  0.00  0.00    +0.243 C 
ATOM     46  O   THR A   4      15.529  30.996  21.544  0.00  0.00    -0.273 OA
ATOM     47  N   GLY A   5      14.636  29.078  20.789  0.00  0.00    -0.295 N 
ATOM     48  H   GLY A   5      13.793  28.610  20.400  0.00  0.00    +0.150 HD
BRANCH  45  49
ATOM     49  CA  THR A   4      13.364  31.175  20.649  0.00  0.00    +0.176 C 
BRANCH  49  51
ATOM     50  C   ASP A   3      12.984  30.277  18.415  0.00  0.00    +0.241 C 
ATOM     51  N   THR A   4      12.530  30.461  19.654  0.00  0.00    -0.295 N 
ATOM     52  H   THR A   4      11.591  30.104  19.923  0.00  0.00    +0.150 HD
ATOM     53  O   ASP A   3      14.100  30.656  18.059  0.00  0.00    -0.273 OA
BRANCH  50  54
ATOM     54  CA  ASP A   3      12.040  29.547  17.446  0.00  0.00    +0.160 C 
BRANCH  54  57
ATOM     55  C   LEU A   2       9.903  30.391  16.643  0.00  0.00    +0.241 C 
ATOM     56  O   LEU A   2       9.236  29.709  17.433  0.00  0.00    -0.273 OA
ATOM     57  N   ASP A   3      11.220  30.509  16.682  0.00  0.00    -0.297 N 
ATOM     58  H   ASP A   3      11.683  31.287  16.170  0.00  0.00    +0.150 HD
BRANCH  55  59
ATOM     59  CA  LEU A   2       9.187  31.124  15.510  0.00  0.00    +0.149 C 
BRANCH  59  61
ATOM     60  C   LEU A   1       9.326  29.421  13.735  0.00  0.00    +0.238 C 
ATOM     61  N   LEU A   2       8.598  30.101  14.616  0.00  0.00    -0.297 N 
ATOM     62  H   LEU A   2       7.578  29.907  14.679  0.00  0.00    +0.150 HD
ATOM     63  O   LEU A   1      10.528  29.672  13.583  0.00  0.00    -0.274 OA
BRANCH  60  64
ATOM     64  CA  LEU A   1       8.681  28.292  12.983  0.00  0.00    +0.145 C 
BRANCH  64  65
ATOM     65  N   LEU A   1       8.862  28.455  11.526  0.00  0.00    -0.238 NA
ATOM     66  H   LEU A   1       9.724  28.058  11.101  0.00  0.00    +0.142 HD
ENDBRANCH  64  65
BRANCH  64  67
ATOM     67  CB  LEU A   1       9.315  26.958  13.327  0.00  0.00    +0.026 C 
BRANCH  67  68
ATOM     68  CG  LEU A   1       9.195  26.441  14.740  0.00  0.00    +0.002 C 
ATOM     69  CD2 LEU A   1       7.788  26.109  15.113  0.00  0.00    +0.000 C 
ATOM     70  CD1 LEU A   1      10.040  25.167  14.842  0.00  0.00    +0.000 C 
ENDBRANCH  67  68
ENDBRANCH  64  67
ENDBRANCH  60  64
ENDBRANCH  59  61
BRANCH  59  71
ATOM     71  CB  LEU A   2       8.124  32.054  16.044  0.00  0.00    +0.029 C 
BRANCH  71  72
ATOM     72  CG  LEU A   2       7.315  32.790  14.982  0.00  0.00    +0.002 C 
ATOM     73  CD2 LEU A   2       6.208  33.636  15.672  0.00  0.00    +0.000 C 
ATOM     74  CD1 LEU A   2       8.189  33.658  14.112  0.00  0.00    +0.000 C 
ENDBRANCH  71  72
ENDBRANCH  59  71
ENDBRANCH  55  59
ENDBRANCH  54  57
BRANCH  54  75
ATOM     75  CB  ASP A   3      12.834  28.718  16.461  0.00  0.00    +0.143 C 
BRANCH  75  76
ATOM     76  CG  ASP A   3      13.518  27.580  17.013  0.00  0.00    +0.367 C 
ATOM     77  OD2 ASP A   3      13.584  27.488  18.286  0.00  0.00    -0.246 OA
ATOM     78  OD1 ASP A   3      14.084  26.730  16.303  0.00  0.00    -0.246 OA
ENDBRANCH  75  76
ENDBRANCH  54  75
ENDBRANCH  50  54
ENDBRANCH  49  51
BRANCH  49  79
ATOM     79  CB  THR A   4      12.555  31.511  21.922  0.00  0.00    +0.137 C 
ATOM     80  CG2 THR A   4      11.372  32.404  21.608  0.00  0.00    +0.034 C 
BRANCH  79  81
ATOM     81  OG1 THR A   4      12.067  30.300  22.513  0.00  0.00    -0.382 OA
ATOM     82  HG1 THR A   4      12.832  29.719  22.752  0.00  0.00    +0.210 HD
ENDBRANCH  79  81
ENDBRANCH  49  79
ENDBRANCH  45  49
ENDBRANCH  44  47
ENDBRANCH   1  44
TORSDOF 35
REMARK  Name = ../refined-set-2016/3d1y/3d1y_pocket.pdb
REMARK  228 active torsions:
REMARK  status: ('A' for Active; 'I' for Inactive)
REMARK    1  A    between atoms: _1  and  _3
REMARK    2  A    between atoms: _3  and  _4
REMARK    3  A    between atoms: _3  and  _6
REMARK    4  A    between atoms: _6  and  _7
REMARK    5  A    between atoms: _7  and  _8
REMARK    6  A    between atoms: _8  and  _9
REMARK    7  A    between atoms: _18  and  _20
REMARK    8  A    between atoms: _20  and  _21
REMARK    9  A    between atoms: _20  and  _23
REMARK   10  A    between atoms: _23  and  _24
REMARK   11  A    between atoms: _27  and  _29
REMARK   12  A    between atoms: _29  and  _30
REMARK   13  A    between atoms: _29  and  _32
REMARK   14  A    between atoms: _32  and  _33
REMARK   15  A    between atoms: _36  and  _38
REMARK   16  A    between atoms: _38  and  _39
REMARK   17  A    between atoms: _38  and  _41
REMARK   18  A    between atoms: _41  and  _42
REMARK   19  A    between atoms: _45  and  _47
REMARK   20  A    between atoms: _47  and  _48
REMARK   21  A    between atoms: _47  and  _50
REMARK   22  A    between atoms: _50  and  _51
REMARK   23  A    between atoms: _54  and  _56
REMARK   24  A    between atoms: _56  and  _57
REMARK   25  A    between atoms: _59  and  _61
REMARK   26  A    between atoms: _61  and  _62
REMARK   27  A    between atoms: _65  and  _67
REMARK   28  A    between atoms: _67  and  _68
REMARK   29  A    between atoms: _67  and  _70
REMARK   30  A    between atoms: _70  and  _71
REMARK   31  A    between atoms: _74  and  _76
REMARK   32  A    between atoms: _76  and  _77
REMARK   33  A    between atoms: _76  and  _79
REMARK   34  A    between atoms: _79  and  _80
REMARK   35  A    between atoms: _83  and  _85
REMARK   36  A    between atoms: _85  and  _86
REMARK   37  A    between atoms: _85  and  _88
REMARK   38  A    between atoms: _88  and  _89
REMARK   39  A    between atoms: _92  and  _94
REMARK   40  A    between atoms: _94  and  _95
REMARK   41  A    between atoms: _94  and  _97
REMARK   42  A    between atoms: _100  and  _102
REMARK   43  A    between atoms: _102  and  _103
REMARK   44  A    between atoms: _102  and  _105
REMARK   45  A    between atoms: _105  and  _106
REMARK   46  A    between atoms: _106  and  _107
REMARK   47  A    between atoms: _107  and  _108
REMARK   48  A    between atoms: _108  and  _109
REMARK   49  A    between atoms: _113  and  _115
REMARK   50  A    between atoms: _115  and  _116
REMARK   51  A    between atoms: _115  and  _118
REMARK   52  A    between atoms: _118  and  _119
REMARK   53  A    between atoms: _119  and  _120
REMARK   54  A    between atoms: _122  and  _124
REMARK   55  A    between atoms: _124  and  _125
REMARK   56  A    between atoms: _124  and  _127
REMARK   57  A    between atoms: _127  and  _128
REMARK   58  A    between atoms: _131  and  _133
REMARK   59  A    between atoms: _133  and  _134
REMARK   60  A    between atoms: _136  and  _138
REMARK   61  A    between atoms: _138  and  _139
REMARK   62  A    between atoms: _141  and  _143
REMARK   63  A    between atoms: _143  and  _144
REMARK   64  A    between atoms: _143  and  _146
REMARK   65  A    between atoms: _146  and  _147
REMARK   66  A    between atoms: _150  and  _152
REMARK   67  A    between atoms: _152  and  _153
REMARK   68  A    between atoms: _155  and  _157
REMARK   69  A    between atoms: _157  and  _158
REMARK   70  A    between atoms: _160  and  _162
REMARK   71  A    between atoms: _162  and  _163
REMARK   72  A    between atoms: _162  and  _165
REMARK   73  A    between atoms: _165  and  _166
REMARK   74  A    between atoms: _172  and  _174
REMARK   75  A    between atoms: _174  and  _175
REMARK   76  A    between atoms: _174  and  _177
REMARK   77  A    between atoms: _180  and  _182
REMARK   78  A    between atoms: _182  and  _183
REMARK   79  A    between atoms: _182  and  _185
REMARK   80  A    between atoms: _188  and  _190
REMARK   81  A    between atoms: _190  and  _191
REMARK   82  A    between atoms: _190  and  _193
REMARK   83  A    between atoms: _193  and  _194
REMARK   84  A    between atoms: _198  and  _199
REMARK   85  A    between atoms: _204  and  _206
REMARK   86  A    between atoms: _206  and  _207
REMARK   87  A    between atoms: _206  and  _209
REMARK   88  A    between atoms: _209  and  _210
REMARK   89  A    between atoms: _214  and  _215
REMARK   90  A    between atoms: _220  and  _222
REMARK   91  A    between atoms: _222  and  _223
REMARK   92  A    between atoms: _222  and  _225
REMARK   93  A    between atoms: _228  and  _230
REMARK   94  A    between atoms: _230  and  _231
REMARK   95  A    between atoms: _230  and  _233
REMARK   96  A    between atoms: _233  and  _234
REMARK   97  A    between atoms: _239  and  _241
REMARK   98  A    between atoms: _241  and  _242
REMARK   99  A    between atoms: _241  and  _244
REMARK  100  A    between atoms: _244  and  _245
REMARK  101  A    between atoms: _248  and  _250
REMARK  102  A    between atoms: _250  and  _251
REMARK  103  A    between atoms: _250  and  _253
REMARK  104  A    between atoms: _253  and  _254
REMARK  105  A    between atoms: _257  and  _259
REMARK  106  A    between atoms: _259  and  _260
REMARK  107  A    between atoms: _262  and  _264
REMARK  108  A    between atoms: _264  and  _265
REMARK  109  A    between atoms: _264  and  _267
REMARK  110  A    between atoms: _267  and  _268
REMARK  111  A    between atoms: _268  and  _269
REMARK  112  A    between atoms: _269  and  _270
REMARK  113  A    between atoms: _279  and  _281
REMARK  114  A    between atoms: _281  and  _282
REMARK  115  A    between atoms: _281  and  _284
REMARK  116  A    between atoms: _284  and  _285
REMARK  117  A    between atoms: _290  and  _292
REMARK  118  A    between atoms: _292  and  _293
REMARK  119  A    between atoms: _292  and  _295
REMARK  120  A    between atoms: _295  and  _296
REMARK  121  A    between atoms: _296  and  _297
REMARK  122  A    between atoms: _297  and  _298
REMARK  123  A    between atoms: _307  and  _309
REMARK  124  A    between atoms: _309  and  _310
REMARK  125  A    between atoms: _309  and  _312
REMARK  126  A    between atoms: _312  and  _313
REMARK  127  A    between atoms: _316  and  _318
REMARK  128  A    between atoms: _318  and  _319
REMARK  129  A    between atoms: _318  and  _321
REMARK  130  A    between atoms: _321  and  _322
REMARK  131  A    between atoms: _325  and  _327
REMARK  132  A    between atoms: _327  and  _328
REMARK  133  A    between atoms: _327  and  _330
REMARK  134  A    between atoms: _330  and  _331
REMARK  135  A    between atoms: _334  and  _336
REMARK  136  A    between atoms: _336  and  _337
REMARK  137  A    between atoms: _336  and  _339
REMARK  138  A    between atoms: _339  and  _340
REMARK  139  A    between atoms: _343  and  _345
REMARK  140  A    between atoms: _345  and  _346
REMARK  141  A    between atoms: _348  and  _350
REMARK  142  A    between atoms: _350  and  _351
REMARK  143  A    between atoms: _354  and  _356
REMARK  144  A    between atoms: _356  and  _357
REMARK  145  A    between atoms: _356  and  _359
REMARK  146  A    between atoms: _359  and  _360
REMARK  147  A    between atoms: _363  and  _365
REMARK  148  A    between atoms: _365  and  _366
REMARK  149  A    between atoms: _365  and  _368
REMARK  150  A    between atoms: _368  and  _369
REMARK  151  A    between atoms: _372  and  _374
REMARK  152  A    between atoms: _374  and  _375
REMARK  153  A    between atoms: _374  and  _377
REMARK  154  A    between atoms: _377  and  _378
REMARK  155  A    between atoms: _381  and  _383
REMARK  156  A    between atoms: _383  and  _384
REMARK  157  A    between atoms: _383  and  _386
REMARK  158  A    between atoms: _389  and  _391
REMARK  159  A    between atoms: _391  and  _392
REMARK  160  A    between atoms: _391  and  _394
REMARK  161  A    between atoms: _394  and  _395
REMARK  162  A    between atoms: _395  and  _396
REMARK  163  A    between atoms: _396  and  _397
REMARK  164  A    between atoms: _397  and  _398
REMARK  165  A    between atoms: _402  and  _404
REMARK  166  A    between atoms: _404  and  _405
REMARK  167  A    between atoms: _404  and  _407
REMARK  168  A    between atoms: _407  and  _408
REMARK  169  A    between atoms: _408  and  _409
REMARK  170  A    between atoms: _411  and  _413
REMARK  171  A    between atoms: _413  and  _414
REMARK  172  A    between atoms: _413  and  _416
REMARK  173  A    between atoms: _416  and  _417
REMARK  174  A    between atoms: _420  and  _422
REMARK  175  A    between atoms: _422  and  _423
REMARK  176  A    between atoms: _425  and  _427
REMARK  177  A    between atoms: _427  and  _428
REMARK  178  A    between atoms: _430  and  _432
REMARK  179  A    between atoms: _432  and  _433
REMARK  180  A    between atoms: _432  and  _435
REMARK  181  A    between atoms: _435  and  _436
REMARK  182  A    between atoms: _439  and  _441
REMARK  183  A    between atoms: _441  and  _442
REMARK  184  A    between atoms: _444  and  _446
REMARK  185  A    between atoms: _446  and  _447
REMARK  186  A    between atoms: _449  and  _451
REMARK  187  A    between atoms: _451  and  _452
REMARK  188  A    between atoms: _451  and  _454
REMARK  189  A    between atoms: _454  and  _455
REMARK  190  A    between atoms: _461  and  _463
REMARK  191  A    between atoms: _463  and  _464
REMARK  192  A    between atoms: _463  and  _466
REMARK  193  A    between atoms: _469  and  _471
REMARK  194  A    between atoms: _471  and  _472
REMARK  195  A    between atoms: _471  and  _474
REMARK  196  A    between atoms: _477  and  _479
REMARK  197  A    between atoms: _479  and  _480
REMARK  198  A    between atoms: _479  and  _482
REMARK  199  A    between atoms: _482  and  _483
REMARK  200  A    between atoms: _487  and  _488
REMARK  201  A    between atoms: _493  and  _495
REMARK  202  A    between atoms: _495  and  _496
REMARK  203  A    between atoms: _495  and  _498
REMARK  204  A    between atoms: _498  and  _499
REMARK  205  A    between atoms: _503  and  _504
REMARK  206  A    between atoms: _509  and  _511
REMARK  207  A    between atoms: _511  and  _512
REMARK  208  A    between atoms: _511  and  _514
REMARK  209  A    between atoms: _517  and  _519
REMARK  210  A    between atoms: _519  and  _520
REMARK  211  A    between atoms: _519  and  _522
REMARK  212  A    between atoms: _522  and  _523
REMARK  213  A    between atoms: _528  and  _530
REMARK  214  A    between atoms: _530  and  _531
REMARK  215  A    between atoms: _530  and  _533
REMARK  216  A    between atoms: _533  and  _534
REMARK  217  A    between atoms: _537  and  _539
REMARK  218  A    between atoms: _539  and  _540
REMARK  219  A    between atoms: _539  and  _542
REMARK  220  A    between atoms: _542  and  _543
REMARK  221  A    between atoms: _546  and  _548
REMARK  222  A    between atoms: _548  and  _549
REMARK  223  A    between atoms: _551  and  _553
REMARK  224  A    between atoms: _553  and  _554
REMARK  225  A    between atoms: _553  and  _556
REMARK  226  A    between atoms: _556  and  _557
REMARK  227  A    between atoms: _557  and  _558
REMARK  228  A    between atoms: _558  and  _559
REMARK                            x       y       z     vdW  Elec       q    Type
REMARK                         _______ _______ _______ _____ _____    ______ ____
ROOT
ATOM      1  C   GLY A   5      21.580  19.867  17.735  0.00  0.00    +0.243 C 
ATOM      2  N   ILE A   6      20.377  19.435  18.113  0.00  0.00    -0.297 N 
ATOM      3  H   ILE A   6      19.574  20.089  18.211  0.00  0.00    +0.150 HD
ATOM      4  O   GLY A   5      22.568  19.133  17.758  0.00  0.00    -0.273 OA
ENDROOT
BRANCH   1   5
ATOM      5  CA  GLY A   5      21.663  21.283  17.320  0.00  0.00    +0.176 C 
BRANCH   5   7
ATOM      6  C   GLY A   4      23.268  22.601  16.047  0.00  0.00    +0.243 C 
ATOM      7  N   GLY A   5      22.853  21.448  16.437  0.00  0.00    -0.295 N 
ATOM      8  H   GLY A   5      23.366  20.599  16.125  0.00  0.00    +0.150 HD
ATOM      9  O   GLY A   4      22.744  23.663  16.320  0.00  0.00    -0.273 OA
BRANCH   6  10
ATOM     10  CA  GLY A   4      24.530  22.458  15.219  0.00  0.00    +0.176 C 
BRANCH  10  12
ATOM     11  C   ILE A   3      25.087  23.579  13.197  0.00  0.00    +0.241 C 
ATOM     12  N   GLY A   4      24.851  23.635  14.503  0.00  0.00    -0.295 N 
ATOM     13  H   GLY A   4      24.902  24.547  15.001  0.00  0.00    +0.150 HD
ATOM     14  O   ILE A   3      24.955  22.534  12.577  0.00  0.00    -0.273 OA
BRANCH  11  15
ATOM     15  CA  ILE A   3      25.542  24.848  12.577  0.00  0.00    +0.149 C 
BRANCH  15  18
ATOM     16  C   MET A   2      27.616  25.042  11.357  0.00  0.00    +0.241 C 
ATOM     17  O   MET A   2      28.100  25.824  12.196  0.00  0.00    -0.273 OA
ATOM     18  N   ILE A   3      26.410  24.569  11.442  0.00  0.00    -0.297 N 
ATOM     19  H   ILE A   3      26.051  23.969  10.672  0.00  0.00    +0.150 HD
BRANCH  16  20
ATOM     20  CA  MET A   2      28.435  24.590  10.151  0.00  0.00    +0.149 C 
BRANCH  20  22
ATOM     21  C   LYS A   1      28.593  26.231   8.334  0.00  0.00    +0.238 C 
ATOM     22  N   MET A   2      28.975  25.790   9.543  0.00  0.00    -0.297 N 
ATOM     23  H   MET A   2      29.690  26.334  10.067  0.00  0.00    +0.150 HD
ATOM     24  O   LYS A   1      27.856  25.584   7.598  0.00  0.00    -0.274 OA
BRANCH  21  25
ATOM     25  CA  LYS A   1      29.056  27.591   7.898  0.00  0.00    +0.145 C 
BRANCH  25  26
ATOM     26  N   LYS A   1      29.193  27.621   6.451  0.00  0.00    -0.238 NA
ATOM     27  H   LYS A   1      28.580  26.987   5.900  0.00  0.00    +0.142 HD
ENDBRANCH  25  26
BRANCH  25  28
ATOM     28  CB  LYS A   1      28.060  28.688   8.345  0.00  0.00    +0.026 C 
BRANCH  28  29
ATOM     29  CG  LYS A   1      28.028  28.975   9.838  0.00  0.00    -0.000 C 
BRANCH  29  30
ATOM     30  CD  LYS A   1      26.970  29.973  10.173  0.00  0.00    -0.024 C 
BRANCH  30  31
ATOM     31  CE  LYS A   1      26.912  30.351  11.641  0.00  0.00    -0.086 C 
BRANCH  31  32
ATOM     32  NZ  LYS A   1      27.952  31.399  11.806  0.00  0.00    +0.380 N 
ATOM     33  HZ1 LYS A   1      27.973  31.712  12.798  0.00  0.00    -0.089 HD
ATOM     34  HZ2 LYS A   1      28.880  31.009  11.545  0.00  0.00    -0.089 HD
ATOM     35  HZ3 LYS A   1      27.729  32.207  11.191  0.00  0.00    -0.089 HD
ENDBRANCH  31  32
ENDBRANCH  30  31
ENDBRANCH  29  30
ENDBRANCH  28  29
ENDBRANCH  25  28
ENDBRANCH  21  25
ENDBRANCH  20  22
BRANCH  20  36
ATOM     36  CB  MET A   2      29.544  23.661  10.608  0.00  0.00    +0.041 C 
BRANCH  36  37
ATOM     37  CG  MET A   2      30.235  22.933   9.511  0.00  0.00    +0.060 C 
BRANCH  37  38
ATOM     38  SD  MET A   2      29.284  21.571   8.938  0.00  0.00    -0.139 S 
ATOM     39  CE  MET A   2      29.973  20.245  10.012  0.00  0.00    +0.069 C 
ENDBRANCH  37  38
ENDBRANCH  36  37
ENDBRANCH  20  36
ENDBRANCH  16  20
ENDBRANCH  15  18
BRANCH  15  40
ATOM     40  CB  ILE A   3      24.346  25.724  12.208  0.00  0.00    +0.027 C 
ATOM     41  CG2 ILE A   3      24.824  27.098  11.799  0.00  0.00    +0.002 C 
BRANCH  40  42
ATOM     42  CG1 ILE A   3      23.423  25.049  11.208  0.00  0.00    +0.002 C 
ATOM     43  CD1 ILE A   3      22.125  25.794  10.922  0.00  0.00    +0.000 C 
ENDBRANCH  40  42
ENDBRANCH  15  40
ENDBRANCH  11  15
ENDBRANCH  10  12
ENDBRANCH   6  10
ENDBRANCH   5   7
ENDBRANCH   1   5
BRANCH   2  44
ATOM     44  CA  ILE A   6      20.229  17.988  18.388  0.00  0.00    +0.149 C 
BRANCH  44  45
ATOM     45  C   ILE A   6      20.485  17.187  17.143  0.00  0.00    +0.241 C 
ATOM     46  N   GLY A   7      21.257  16.107  17.372  0.00  0.00    -0.295 N 
ATOM     47  H   GLY A   7      21.606  15.884  18.326  0.00  0.00    +0.150 HD
ATOM     48  O   ILE A   6      20.035  17.542  16.064  0.00  0.00    -0.273 OA
BRANCH  46  49
ATOM     49  CA  GLY A   7      21.575  15.286  16.258  0.00  0.00    +0.176 C 
BRANCH  49  50
ATOM     50  C   GLY A   7      22.848  15.647  15.550  0.00  0.00    +0.243 C 
ATOM     51  N   GLY A   8      23.519  16.733  15.903  0.00  0.00    -0.295 N 
ATOM     52  H   GLY A   8      23.138  17.356  16.643  0.00  0.00    +0.150 HD
ATOM     53  O   GLY A   7      23.237  14.864  14.673  0.00  0.00    -0.273 OA
BRANCH  51  54
ATOM     54  CA  GLY A   8      24.776  17.059  15.268  0.00  0.00    +0.176 C 
BRANCH  54  55
ATOM     55  C   GLY A   8      24.692  18.344  14.452  0.00  0.00    +0.243 C 
ATOM     56  O   GLY A   8      23.931  19.242  14.700  0.00  0.00    -0.273 OA
ATOM     57  N   PHE A   9      25.602  18.388  13.451  0.00  0.00    -0.297 N 
ATOM     58  H   PHE A   9      26.149  17.528  13.244  0.00  0.00    +0.150 HD
BRANCH  57  59
ATOM     59  CA  PHE A   9      25.854  19.572  12.651  0.00  0.00    +0.153 C 
BRANCH  59  60
ATOM     60  C   PHE A   9      25.433  19.387  11.197  0.00  0.00    +0.241 C 
ATOM     61  O   PHE A   9      25.422  18.259  10.692  0.00  0.00    -0.273 OA
ATOM     62  N   VAL A  10      25.086  20.475  10.573  0.00  0.00    -0.298 N 
ATOM     63  H   VAL A  10      25.045  21.353  11.129  0.00  0.00    +0.150 HD
BRANCH  62  64
ATOM     64  CA  VAL A  10      24.751  20.562   9.158  0.00  0.00    +0.137 C 
BRANCH  64  65
ATOM     65  CB  VAL A  10      23.264  20.658   8.833  0.00  0.00    +0.026 C 
ATOM     66  CG2 VAL A  10      22.677  21.866   9.542  0.00  0.00    +0.002 C 
ATOM     67  CG1 VAL A  10      22.535  19.372   9.210  0.00  0.00    +0.002 C 
ENDBRANCH  64  65
BRANCH  64  68
ATOM     68  C   VAL A  10      25.507  21.719   8.537  0.00  0.00    +0.227 C 
ATOM     69  O   VAL A  10      25.671  22.766   9.157  0.00  0.00    -0.286 OA
ENDBRANCH  64  68
ENDBRANCH  62  64
ENDBRANCH  59  60
BRANCH  59  70
ATOM     70  CB  PHE A   9      27.320  19.955  12.701  0.00  0.00    +0.055 C 
BRANCH  70  71
ATOM     71  CG  PHE A   9      27.760  20.532  14.033  0.00  0.00    -0.020 A 
ATOM     72  CD2 PHE A   9      28.018  19.723  15.131  0.00  0.00    -0.004 A 
ATOM     73  CE2 PHE A   9      28.396  20.253  16.331  0.00  0.00    -0.000 A 
ATOM     74  CZ  PHE A   9      28.533  21.626  16.476  0.00  0.00    -0.000 A 
ATOM     75  CE1 PHE A   9      28.273  22.441  15.399  0.00  0.00    -0.000 A 
ATOM     76  CD1 PHE A   9      27.927  21.903  14.186  0.00  0.00    -0.004 A 
ENDBRANCH  70  71
ENDBRANCH  59  70
ENDBRANCH  57  59
ENDBRANCH  54  55
ENDBRANCH  51  54
ENDBRANCH  49  50
ENDBRANCH  46  49
ENDBRANCH  44  45
BRANCH  44  77
ATOM     77  CB  ILE A   6      18.866  17.714  19.028  0.00  0.00    +0.027 C 
ATOM     78  CG2 ILE A   6      18.576  16.223  19.077  0.00  0.00    +0.002 C 
BRANCH  77  79
ATOM     79  CG1 ILE A   6      18.760  18.280  20.438  0.00  0.00    +0.002 C 
ATOM     80  CD1 ILE A   6      19.932  18.060  21.351  0.00  0.00    +0.000 C 
ENDBRANCH  77  79
ENDBRANCH  44  77
ENDBRANCH   2  44
TORSDOF 35
REMARK  Name = ../refined-set-2016/3d1y/3d1y_pocket.pdb
REMARK  228 active torsions:
REMARK  status: ('A' for Active; 'I' for Inactive)
REMARK    1  A    between atoms: _1  and  _3
REMARK    2  A    between atoms: _3  and  _4
REMARK    3  A    between atoms: _3  and  _6
REMARK    4  A    between atoms: _6  and  _7
REMARK    5  A    between atoms: _7  and  _8
REMARK    6  A    between atoms: _8  and  _9
REMARK    7  A    between atoms: _18  and  _20
REMARK    8  A    between atoms: _20  and  _21
REMARK    9  A    between atoms: _20  and  _23
REMARK   10  A    between atoms: _23  and  _24
REMARK   11  A    between atoms: _27  and  _29
REMARK   12  A    between atoms: _29  and  _30
REMARK   13  A    between atoms: _29  and  _32
REMARK   14  A    between atoms: _32  and  _33
REMARK   15  A    between atoms: _36  and  _38
REMARK   16  A    between atoms: _38  and  _39
REMARK   17  A    between atoms: _38  and  _41
REMARK   18  A    between atoms: _41  and  _42
REMARK   19  A    between atoms: _45  and  _47
REMARK   20  A    between atoms: _47  and  _48
REMARK   21  A    between atoms: _47  and  _50
REMARK   22  A    between atoms: _50  and  _51
REMARK   23  A    between atoms: _54  and  _56
REMARK   24  A    between atoms: _56  and  _57
REMARK   25  A    between atoms: _59  and  _61
REMARK   26  A    between atoms: _61  and  _62
REMARK   27  A    between atoms: _65  and  _67
REMARK   28  A    between atoms: _67  and  _68
REMARK   29  A    between atoms: _67  and  _70
REMARK   30  A    between atoms: _70  and  _71
REMARK   31  A    between atoms: _74  and  _76
REMARK   32  A    between atoms: _76  and  _77
REMARK   33  A    between atoms: _76  and  _79
REMARK   34  A    between atoms: _79  and  _80
REMARK   35  A    between atoms: _83  and  _85
REMARK   36  A    between atoms: _85  and  _86
REMARK   37  A    between atoms: _85  and  _88
REMARK   38  A    between atoms: _88  and  _89
REMARK   39  A    between atoms: _92  and  _94
REMARK   40  A    between atoms: _94  and  _95
REMARK   41  A    between atoms: _94  and  _97
REMARK   42  A    between atoms: _100  and  _102
REMARK   43  A    between atoms: _102  and  _103
REMARK   44  A    between atoms: _102  and  _105
REMARK   45  A    between atoms: _105  and  _106
REMARK   46  A    between atoms: _106  and  _107
REMARK   47  A    between atoms: _107  and  _108
REMARK   48  A    between atoms: _108  and  _109
REMARK   49  A    between atoms: _113  and  _115
REMARK   50  A    between atoms: _115  and  _116
REMARK   51  A    between atoms: _115  and  _118
REMARK   52  A    between atoms: _118  and  _119
REMARK   53  A    between atoms: _119  and  _120
REMARK   54  A    between atoms: _122  and  _124
REMARK   55  A    between atoms: _124  and  _125
REMARK   56  A    between atoms: _124  and  _127
REMARK   57  A    between atoms: _127  and  _128
REMARK   58  A    between atoms: _131  and  _133
REMARK   59  A    between atoms: _133  and  _134
REMARK   60  A    between atoms: _136  and  _138
REMARK   61  A    between atoms: _138  and  _139
REMARK   62  A    between atoms: _141  and  _143
REMARK   63  A    between atoms: _143  and  _144
REMARK   64  A    between atoms: _143  and  _146
REMARK   65  A    between atoms: _146  and  _147
REMARK   66  A    between atoms: _150  and  _152
REMARK   67  A    between atoms: _152  and  _153
REMARK   68  A    between atoms: _155  and  _157
REMARK   69  A    between atoms: _157  and  _158
REMARK   70  A    between atoms: _160  and  _162
REMARK   71  A    between atoms: _162  and  _163
REMARK   72  A    between atoms: _162  and  _165
REMARK   73  A    between atoms: _165  and  _166
REMARK   74  A    between atoms: _172  and  _174
REMARK   75  A    between atoms: _174  and  _175
REMARK   76  A    between atoms: _174  and  _177
REMARK   77  A    between atoms: _180  and  _182
REMARK   78  A    between atoms: _182  and  _183
REMARK   79  A    between atoms: _182  and  _185
REMARK   80  A    between atoms: _188  and  _190
REMARK   81  A    between atoms: _190  and  _191
REMARK   82  A    between atoms: _190  and  _193
REMARK   83  A    between atoms: _193  and  _194
REMARK   84  A    between atoms: _198  and  _199
REMARK   85  A    between atoms: _204  and  _206
REMARK   86  A    between atoms: _206  and  _207
REMARK   87  A    between atoms: _206  and  _209
REMARK   88  A    between atoms: _209  and  _210
REMARK   89  A    between atoms: _214  and  _215
REMARK   90  A    between atoms: _220  and  _222
REMARK   91  A    between atoms: _222  and  _223
REMARK   92  A    between atoms: _222  and  _225
REMARK   93  A    between atoms: _228  and  _230
REMARK   94  A    between atoms: _230  and  _231
REMARK   95  A    between atoms: _230  and  _233
REMARK   96  A    between atoms: _233  and  _234
REMARK   97  A    between atoms: _239  and  _241
REMARK   98  A    between atoms: _241  and  _242
REMARK   99  A    between atoms: _241  and  _244
REMARK  100  A    between atoms: _244  and  _245
REMARK  101  A    between atoms: _248  and  _250
REMARK  102  A    between atoms: _250  and  _251
REMARK  103  A    between atoms: _250  and  _253
REMARK  104  A    between atoms: _253  and  _254
REMARK  105  A    between atoms: _257  and  _259
REMARK  106  A    between atoms: _259  and  _260
REMARK  107  A    between atoms: _262  and  _264
REMARK  108  A    between atoms: _264  and  _265
REMARK  109  A    between atoms: _264  and  _267
REMARK  110  A    between atoms: _267  and  _268
REMARK  111  A    between atoms: _268  and  _269
REMARK  112  A    between atoms: _269  and  _270
REMARK  113  A    between atoms: _279  and  _281
REMARK  114  A    between atoms: _281  and  _282
REMARK  115  A    between atoms: _281  and  _284
REMARK  116  A    between atoms: _284  and  _285
REMARK  117  A    between atoms: _290  and  _292
REMARK  118  A    between atoms: _292  and  _293
REMARK  119  A    between atoms: _292  and  _295
REMARK  120  A    between atoms: _295  and  _296
REMARK  121  A    between atoms: _296  and  _297
REMARK  122  A    between atoms: _297  and  _298
REMARK  123  A    between atoms: _307  and  _309
REMARK  124  A    between atoms: _309  and  _310
REMARK  125  A    between atoms: _309  and  _312
REMARK  126  A    between atoms: _312  and  _313
REMARK  127  A    between atoms: _316  and  _318
REMARK  128  A    between atoms: _318  and  _319
REMARK  129  A    between atoms: _318  and  _321
REMARK  130  A    between atoms: _321  and  _322
REMARK  131  A    between atoms: _325  and  _327
REMARK  132  A    between atoms: _327  and  _328
REMARK  133  A    between atoms: _327  and  _330
REMARK  134  A    between atoms: _330  and  _331
REMARK  135  A    between atoms: _334  and  _336
REMARK  136  A    between atoms: _336  and  _337
REMARK  137  A    between atoms: _336  and  _339
REMARK  138  A    between atoms: _339  and  _340
REMARK  139  A    between atoms: _343  and  _345
REMARK  140  A    between atoms: _345  and  _346
REMARK  141  A    between atoms: _348  and  _350
REMARK  142  A    between atoms: _350  and  _351
REMARK  143  A    between atoms: _354  and  _356
REMARK  144  A    between atoms: _356  and  _357
REMARK  145  A    between atoms: _356  and  _359
REMARK  146  A    between atoms: _359  and  _360
REMARK  147  A    between atoms: _363  and  _365
REMARK  148  A    between atoms: _365  and  _366
REMARK  149  A    between atoms: _365  and  _368
REMARK  150  A    between atoms: _368  and  _369
REMARK  151  A    between atoms: _372  and  _374
REMARK  152  A    between atoms: _374  and  _375
REMARK  153  A    between atoms: _374  and  _377
REMARK  154  A    between atoms: _377  and  _378
REMARK  155  A    between atoms: _381  and  _383
REMARK  156  A    between atoms: _383  and  _384
REMARK  157  A    between atoms: _383  and  _386
REMARK  158  A    between atoms: _389  and  _391
REMARK  159  A    between atoms: _391  and  _392
REMARK  160  A    between atoms: _391  and  _394
REMARK  161  A    between atoms: _394  and  _395
REMARK  162  A    between atoms: _395  and  _396
REMARK  163  A    between atoms: _396  and  _397
REMARK  164  A    between atoms: _397  and  _398
REMARK  165  A    between atoms: _402  and  _404
REMARK  166  A    between atoms: _404  and  _405
REMARK  167  A    between atoms: _404  and  _407
REMARK  168  A    between atoms: _407  and  _408
REMARK  169  A    between atoms: _408  and  _409
REMARK  170  A    between atoms: _411  and  _413
REMARK  171  A    between atoms: _413  and  _414
REMARK  172  A    between atoms: _413  and  _416
REMARK  173  A    between atoms: _416  and  _417
REMARK  174  A    between atoms: _420  and  _422
REMARK  175  A    between atoms: _422  and  _423
REMARK  176  A    between atoms: _425  and  _427
REMARK  177  A    between atoms: _427  and  _428
REMARK  178  A    between atoms: _430  and  _432
REMARK  179  A    between atoms: _432  and  _433
REMARK  180  A    between atoms: _432  and  _435
REMARK  181  A    between atoms: _435  and  _436
REMARK  182  A    between atoms: _439  and  _441
REMARK  183  A    between atoms: _441  and  _442
REMARK  184  A    between atoms: _444  and  _446
REMARK  185  A    between atoms: _446  and  _447
REMARK  186  A    between atoms: _449  and  _451
REMARK  187  A    between atoms: _451  and  _452
REMARK  188  A    between atoms: _451  and  _454
REMARK  189  A    between atoms: _454  and  _455
REMARK  190  A    between atoms: _461  and  _463
REMARK  191  A    between atoms: _463  and  _464
REMARK  192  A    between atoms: _463  and  _466
REMARK  193  A    between atoms: _469  and  _471
REMARK  194  A    between atoms: _471  and  _472
REMARK  195  A    between atoms: _471  and  _474
REMARK  196  A    between atoms: _477  and  _479
REMARK  197  A    between atoms: _479  and  _480
REMARK  198  A    between atoms: _479  and  _482
REMARK  199  A    between atoms: _482  and  _483
REMARK  200  A    between atoms: _487  and  _488
REMARK  201  A    between atoms: _493  and  _495
REMARK  202  A    between atoms: _495  and  _496
REMARK  203  A    between atoms: _495  and  _498
REMARK  204  A    between atoms: _498  and  _499
REMARK  205  A    between atoms: _503  and  _504
REMARK  206  A    between atoms: _509  and  _511
REMARK  207  A    between atoms: _511  and  _512
REMARK  208  A    between atoms: _511  and  _514
REMARK  209  A    between atoms: _517  and  _519
REMARK  210  A    between atoms: _519  and  _520
REMARK  211  A    between atoms: _519  and  _522
REMARK  212  A    between atoms: _522  and  _523
REMARK  213  A    between atoms: _528  and  _530
REMARK  214  A    between atoms: _530  and  _531
REMARK  215  A    between atoms: _530  and  _533
REMARK  216  A    between atoms: _533  and  _534
REMARK  217  A    between atoms: _537  and  _539
REMARK  218  A    between atoms: _539  and  _540
REMARK  219  A    between atoms: _539  and  _542
REMARK  220  A    between atoms: _542  and  _543
REMARK  221  A    between atoms: _546  and  _548
REMARK  222  A    between atoms: _548  and  _549
REMARK  223  A    between atoms: _551  and  _553
REMARK  224  A    between atoms: _553  and  _554
REMARK  225  A    between atoms: _553  and  _556
REMARK  226  A    between atoms: _556  and  _557
REMARK  227  A    between atoms: _557  and  _558
REMARK  228  A    between atoms: _558  and  _559
REMARK                            x       y       z     vdW  Elec       q    Type
REMARK                         _______ _______ _______ _____ _____    ______ ____
ROOT
ATOM      1  CA  VAL A   1      24.773  25.708   5.366  0.00  0.00    +0.133 C 
ENDROOT
BRANCH   1   2
ATOM      2  CB  VAL A   1      23.855  26.315   6.468  0.00  0.00    +0.023 C 
ATOM      3  CG2 VAL A   1      24.691  27.093   7.479  0.00  0.00    +0.002 C 
ATOM      4  CG1 VAL A   1      23.021  25.253   7.121  0.00  0.00    +0.002 C 
ENDBRANCH   1   2
BRANCH   1   5
ATOM      5  N   VAL A   1      25.693  24.731   5.933  0.00  0.00    -0.239 NA
ATOM      6  H   VAL A   1      26.523  25.081   6.453  0.00  0.00    +0.142 HD
ENDBRANCH   1   5
BRANCH   1   7
ATOM      7  C   VAL A   1      25.539  26.794   4.634  0.00  0.00    +0.224 C 
ATOM      8  O   VAL A   1      26.768  26.922   4.784  0.00  0.00    -0.287 OA
ENDBRANCH   1   7
TORSDOF 3
REMARK  Name = ../refined-set-2016/3d1y/3d1y_pocket.pdb
REMARK  228 active torsions:
REMARK  status: ('A' for Active; 'I' for Inactive)
REMARK    1  A    between atoms: _1  and  _3
REMARK    2  A    between atoms: _3  and  _4
REMARK    3  A    between atoms: _3  and  _6
REMARK    4  A    between atoms: _6  and  _7
REMARK    5  A    between atoms: _7  and  _8
REMARK    6  A    between atoms: _8  and  _9
REMARK    7  A    between atoms: _18  and  _20
REMARK    8  A    between atoms: _20  and  _21
REMARK    9  A    between atoms: _20  and  _23
REMARK   10  A    between atoms: _23  and  _24
REMARK   11  A    between atoms: _27  and  _29
REMARK   12  A    between atoms: _29  and  _30
REMARK   13  A    between atoms: _29  and  _32
REMARK   14  A    between atoms: _32  and  _33
REMARK   15  A    between atoms: _36  and  _38
REMARK   16  A    between atoms: _38  and  _39
REMARK   17  A    between atoms: _38  and  _41
REMARK   18  A    between atoms: _41  and  _42
REMARK   19  A    between atoms: _45  and  _47
REMARK   20  A    between atoms: _47  and  _48
REMARK   21  A    between atoms: _47  and  _50
REMARK   22  A    between atoms: _50  and  _51
REMARK   23  A    between atoms: _54  and  _56
REMARK   24  A    between atoms: _56  and  _57
REMARK   25  A    between atoms: _59  and  _61
REMARK   26  A    between atoms: _61  and  _62
REMARK   27  A    between atoms: _65  and  _67
REMARK   28  A    between atoms: _67  and  _68
REMARK   29  A    between atoms: _67  and  _70
REMARK   30  A    between atoms: _70  and  _71
REMARK   31  A    between atoms: _74  and  _76
REMARK   32  A    between atoms: _76  and  _77
REMARK   33  A    between atoms: _76  and  _79
REMARK   34  A    between atoms: _79  and  _80
REMARK   35  A    between atoms: _83  and  _85
REMARK   36  A    between atoms: _85  and  _86
REMARK   37  A    between atoms: _85  and  _88
REMARK   38  A    between atoms: _88  and  _89
REMARK   39  A    between atoms: _92  and  _94
REMARK   40  A    between atoms: _94  and  _95
REMARK   41  A    between atoms: _94  and  _97
REMARK   42  A    between atoms: _100  and  _102
REMARK   43  A    between atoms: _102  and  _103
REMARK   44  A    between atoms: _102  and  _105
REMARK   45  A    between atoms: _105  and  _106
REMARK   46  A    between atoms: _106  and  _107
REMARK   47  A    between atoms: _107  and  _108
REMARK   48  A    between atoms: _108  and  _109
REMARK   49  A    between atoms: _113  and  _115
REMARK   50  A    between atoms: _115  and  _116
REMARK   51  A    between atoms: _115  and  _118
REMARK   52  A    between atoms: _118  and  _119
REMARK   53  A    between atoms: _119  and  _120
REMARK   54  A    between atoms: _122  and  _124
REMARK   55  A    between atoms: _124  and  _125
REMARK   56  A    between atoms: _124  and  _127
REMARK   57  A    between atoms: _127  and  _128
REMARK   58  A    between atoms: _131  and  _133
REMARK   59  A    between atoms: _133  and  _134
REMARK   60  A    between atoms: _136  and  _138
REMARK   61  A    between atoms: _138  and  _139
REMARK   62  A    between atoms: _141  and  _143
REMARK   63  A    between atoms: _143  and  _144
REMARK   64  A    between atoms: _143  and  _146
REMARK   65  A    between atoms: _146  and  _147
REMARK   66  A    between atoms: _150  and  _152
REMARK   67  A    between atoms: _152  and  _153
REMARK   68  A    between atoms: _155  and  _157
REMARK   69  A    between atoms: _157  and  _158
REMARK   70  A    between atoms: _160  and  _162
REMARK   71  A    between atoms: _162  and  _163
REMARK   72  A    between atoms: _162  and  _165
REMARK   73  A    between atoms: _165  and  _166
REMARK   74  A    between atoms: _172  and  _174
REMARK   75  A    between atoms: _174  and  _175
REMARK   76  A    between atoms: _174  and  _177
REMARK   77  A    between atoms: _180  and  _182
REMARK   78  A    between atoms: _182  and  _183
REMARK   79  A    between atoms: _182  and  _185
REMARK   80  A    between atoms: _188  and  _190
REMARK   81  A    between atoms: _190  and  _191
REMARK   82  A    between atoms: _190  and  _193
REMARK   83  A    between atoms: _193  and  _194
REMARK   84  A    between atoms: _198  and  _199
REMARK   85  A    between atoms: _204  and  _206
REMARK   86  A    between atoms: _206  and  _207
REMARK   87  A    between atoms: _206  and  _209
REMARK   88  A    between atoms: _209  and  _210
REMARK   89  A    between atoms: _214  and  _215
REMARK   90  A    between atoms: _220  and  _222
REMARK   91  A    between atoms: _222  and  _223
REMARK   92  A    between atoms: _222  and  _225
REMARK   93  A    between atoms: _228  and  _230
REMARK   94  A    between atoms: _230  and  _231
REMARK   95  A    between atoms: _230  and  _233
REMARK   96  A    between atoms: _233  and  _234
REMARK   97  A    between atoms: _239  and  _241
REMARK   98  A    between atoms: _241  and  _242
REMARK   99  A    between atoms: _241  and  _244
REMARK  100  A    between atoms: _244  and  _245
REMARK  101  A    between atoms: _248  and  _250
REMARK  102  A    between atoms: _250  and  _251
REMARK  103  A    between atoms: _250  and  _253
REMARK  104  A    between atoms: _253  and  _254
REMARK  105  A    between atoms: _257  and  _259
REMARK  106  A    between atoms: _259  and  _260
REMARK  107  A    between atoms: _262  and  _264
REMARK  108  A    between atoms: _264  and  _265
REMARK  109  A    between atoms: _264  and  _267
REMARK  110  A    between atoms: _267  and  _268
REMARK  111  A    between atoms: _268  and  _269
REMARK  112  A    between atoms: _269  and  _270
REMARK  113  A    between atoms: _279  and  _281
REMARK  114  A    between atoms: _281  and  _282
REMARK  115  A    between atoms: _281  and  _284
REMARK  116  A    between atoms: _284  and  _285
REMARK  117  A    between atoms: _290  and  _292
REMARK  118  A    between atoms: _292  and  _293
REMARK  119  A    between atoms: _292  and  _295
REMARK  120  A    between atoms: _295  and  _296
REMARK  121  A    between atoms: _296  and  _297
REMARK  122  A    between atoms: _297  and  _298
REMARK  123  A    between atoms: _307  and  _309
REMARK  124  A    between atoms: _309  and  _310
REMARK  125  A    between atoms: _309  and  _312
REMARK  126  A    between atoms: _312  and  _313
REMARK  127  A    between atoms: _316  and  _318
REMARK  128  A    between atoms: _318  and  _319
REMARK  129  A    between atoms: _318  and  _321
REMARK  130  A    between atoms: _321  and  _322
REMARK  131  A    between atoms: _325  and  _327
REMARK  132  A    between atoms: _327  and  _328
REMARK  133  A    between atoms: _327  and  _330
REMARK  134  A    between atoms: _330  and  _331
REMARK  135  A    between atoms: _334  and  _336
REMARK  136  A    between atoms: _336  and  _337
REMARK  137  A    between atoms: _336  and  _339
REMARK  138  A    between atoms: _339  and  _340
REMARK  139  A    between atoms: _343  and  _345
REMARK  140  A    between atoms: _345  and  _346
REMARK  141  A    between atoms: _348  and  _350
REMARK  142  A    between atoms: _350  and  _351
REMARK  143  A    between atoms: _354  and  _356
REMARK  144  A    between atoms: _356  and  _357
REMARK  145  A    between atoms: _356  and  _359
REMARK  146  A    between atoms: _359  and  _360
REMARK  147  A    between atoms: _363  and  _365
REMARK  148  A    between atoms: _365  and  _366
REMARK  149  A    between atoms: _365  and  _368
REMARK  150  A    between atoms: _368  and  _369
REMARK  151  A    between atoms: _372  and  _374
REMARK  152  A    between atoms: _374  and  _375
REMARK  153  A    between atoms: _374  and  _377
REMARK  154  A    between atoms: _377  and  _378
REMARK  155  A    between atoms: _381  and  _383
REMARK  156  A    between atoms: _383  and  _384
REMARK  157  A    between atoms: _383  and  _386
REMARK  158  A    between atoms: _389  and  _391
REMARK  159  A    between atoms: _391  and  _392
REMARK  160  A    between atoms: _391  and  _394
REMARK  161  A    between atoms: _394  and  _395
REMARK  162  A    between atoms: _395  and  _396
REMARK  163  A    between atoms: _396  and  _397
REMARK  164  A    between atoms: _397  and  _398
REMARK  165  A    between atoms: _402  and  _404
REMARK  166  A    between atoms: _404  and  _405
REMARK  167  A    between atoms: _404  and  _407
REMARK  168  A    between atoms: _407  and  _408
REMARK  169  A    between atoms: _408  and  _409
REMARK  170  A    between atoms: _411  and  _413
REMARK  171  A    between atoms: _413  and  _414
REMARK  172  A    between atoms: _413  and  _416
REMARK  173  A    between atoms: _416  and  _417
REMARK  174  A    between atoms: _420  and  _422
REMARK  175  A    between atoms: _422  and  _423
REMARK  176  A    between atoms: _425  and  _427
REMARK  177  A    between atoms: _427  and  _428
REMARK  178  A    between atoms: _430  and  _432
REMARK  179  A    between atoms: _432  and  _433
REMARK  180  A    between atoms: _432  and  _435
REMARK  181  A    between atoms: _435  and  _436
REMARK  182  A    between atoms: _439  and  _441
REMARK  183  A    between atoms: _441  and  _442
REMARK  184  A    between atoms: _444  and  _446
REMARK  185  A    between atoms: _446  and  _447
REMARK  186  A    between atoms: _449  and  _451
REMARK  187  A    between atoms: _451  and  _452
REMARK  188  A    between atoms: _451  and  _454
REMARK  189  A    between atoms: _454  and  _455
REMARK  190  A    between atoms: _461  and  _463
REMARK  191  A    between atoms: _463  and  _464
REMARK  192  A    between atoms: _463  and  _466
REMARK  193  A    between atoms: _469  and  _471
REMARK  194  A    between atoms: _471  and  _472
REMARK  195  A    between atoms: _471  and  _474
REMARK  196  A    between atoms: _477  and  _479
REMARK  197  A    between atoms: _479  and  _480
REMARK  198  A    between atoms: _479  and  _482
REMARK  199  A    between atoms: _482  and  _483
REMARK  200  A    between atoms: _487  and  _488
REMARK  201  A    between atoms: _493  and  _495
REMARK  202  A    between atoms: _495  and  _496
REMARK  203  A    between atoms: _495  and  _498
REMARK  204  A    between atoms: _498  and  _499
REMARK  205  A    between atoms: _503  and  _504
REMARK  206  A    between atoms: _509  and  _511
REMARK  207  A    between atoms: _511  and  _512
REMARK  208  A    between atoms: _511  and  _514
REMARK  209  A    between atoms: _517  and  _519
REMARK  210  A    between atoms: _519  and  _520
REMARK  211  A    between atoms: _519  and  _522
REMARK  212  A    between atoms: _522  and  _523
REMARK  213  A    between atoms: _528  and  _530
REMARK  214  A    between atoms: _530  and  _531
REMARK  215  A    between atoms: _530  and  _533
REMARK  216  A    between atoms: _533  and  _534
REMARK  217  A    between atoms: _537  and  _539
REMARK  218  A    between atoms: _539  and  _540
REMARK  219  A    between atoms: _539  and  _542
REMARK  220  A    between atoms: _542  and  _543
REMARK  221  A    between atoms: _546  and  _548
REMARK  222  A    between atoms: _548  and  _549
REMARK  223  A    between atoms: _551  and  _553
REMARK  224  A    between atoms: _553  and  _554
REMARK  225  A    between atoms: _553  and  _556
REMARK  226  A    between atoms: _556  and  _557
REMARK  227  A    between atoms: _557  and  _558
REMARK  228  A    between atoms: _558  and  _559
REMARK                            x       y       z     vdW  Elec       q    Type
REMARK                         _______ _______ _______ _____ _____    ______ ____
ROOT
ATOM      1  CA  LEU A   1      21.401  30.499   6.612  0.00  0.00    +0.133 C 
ENDROOT
BRANCH   1   2
ATOM      2  N   LEU A   1      20.659  31.710   6.974  0.00  0.00    -0.239 NA
ATOM      3  H   LEU A   1      19.971  31.668   7.753  0.00  0.00    +0.142 HD
ENDBRANCH   1   2
BRANCH   1   4
ATOM      4  C   LEU A   1      20.516  29.632   5.776  0.00  0.00    +0.224 C 
ATOM      5  O   LEU A   1      19.319  29.496   6.076  0.00  0.00    -0.287 OA
ENDBRANCH   1   4
BRANCH   1   6
ATOM      6  CB  LEU A   1      21.813  29.740   7.896  0.00  0.00    +0.025 C 
BRANCH   6   7
ATOM      7  CG  LEU A   1      22.556  30.591   8.921  0.00  0.00    +0.002 C 
ATOM      8  CD2 LEU A   1      22.924  29.750  10.114  0.00  0.00    +0.000 C 
ATOM      9  CD1 LEU A   1      23.759  31.325   8.347  0.00  0.00    +0.000 C 
ENDBRANCH   6   7
ENDBRANCH   1   6
TORSDOF 4
REMARK  Name = ../refined-set-2016/3d1y/3d1y_pocket.pdb
REMARK  228 active torsions:
REMARK  status: ('A' for Active; 'I' for Inactive)
REMARK    1  A    between atoms: _1  and  _3
REMARK    2  A    between atoms: _3  and  _4
REMARK    3  A    between atoms: _3  and  _6
REMARK    4  A    between atoms: _6  and  _7
REMARK    5  A    between atoms: _7  and  _8
REMARK    6  A    between atoms: _8  and  _9
REMARK    7  A    between atoms: _18  and  _20
REMARK    8  A    between atoms: _20  and  _21
REMARK    9  A    between atoms: _20  and  _23
REMARK   10  A    between atoms: _23  and  _24
REMARK   11  A    between atoms: _27  and  _29
REMARK   12  A    between atoms: _29  and  _30
REMARK   13  A    between atoms: _29  and  _32
REMARK   14  A    between atoms: _32  and  _33
REMARK   15  A    between atoms: _36  and  _38
REMARK   16  A    between atoms: _38  and  _39
REMARK   17  A    between atoms: _38  and  _41
REMARK   18  A    between atoms: _41  and  _42
REMARK   19  A    between atoms: _45  and  _47
REMARK   20  A    between atoms: _47  and  _48
REMARK   21  A    between atoms: _47  and  _50
REMARK   22  A    between atoms: _50  and  _51
REMARK   23  A    between atoms: _54  and  _56
REMARK   24  A    between atoms: _56  and  _57
REMARK   25  A    between atoms: _59  and  _61
REMARK   26  A    between atoms: _61  and  _62
REMARK   27  A    between atoms: _65  and  _67
REMARK   28  A    between atoms: _67  and  _68
REMARK   29  A    between atoms: _67  and  _70
REMARK   30  A    between atoms: _70  and  _71
REMARK   31  A    between atoms: _74  and  _76
REMARK   32  A    between atoms: _76  and  _77
REMARK   33  A    between atoms: _76  and  _79
REMARK   34  A    between atoms: _79  and  _80
REMARK   35  A    between atoms: _83  and  _85
REMARK   36  A    between atoms: _85  and  _86
REMARK   37  A    between atoms: _85  and  _88
REMARK   38  A    between atoms: _88  and  _89
REMARK   39  A    between atoms: _92  and  _94
REMARK   40  A    between atoms: _94  and  _95
REMARK   41  A    between atoms: _94  and  _97
REMARK   42  A    between atoms: _100  and  _102
REMARK   43  A    between atoms: _102  and  _103
REMARK   44  A    between atoms: _102  and  _105
REMARK   45  A    between atoms: _105  and  _106
REMARK   46  A    between atoms: _106  and  _107
REMARK   47  A    between atoms: _107  and  _108
REMARK   48  A    between atoms: _108  and  _109
REMARK   49  A    between atoms: _113  and  _115
REMARK   50  A    between atoms: _115  and  _116
REMARK   51  A    between atoms: _115  and  _118
REMARK   52  A    between atoms: _118  and  _119
REMARK   53  A    between atoms: _119  and  _120
REMARK   54  A    between atoms: _122  and  _124
REMARK   55  A    between atoms: _124  and  _125
REMARK   56  A    between atoms: _124  and  _127
REMARK   57  A    between atoms: _127  and  _128
REMARK   58  A    between atoms: _131  and  _133
REMARK   59  A    between atoms: _133  and  _134
REMARK   60  A    between atoms: _136  and  _138
REMARK   61  A    between atoms: _138  and  _139
REMARK   62  A    between atoms: _141  and  _143
REMARK   63  A    between atoms: _143  and  _144
REMARK   64  A    between atoms: _143  and  _146
REMARK   65  A    between atoms: _146  and  _147
REMARK   66  A    between atoms: _150  and  _152
REMARK   67  A    between atoms: _152  and  _153
REMARK   68  A    between atoms: _155  and  _157
REMARK   69  A    between atoms: _157  and  _158
REMARK   70  A    between atoms: _160  and  _162
REMARK   71  A    between atoms: _162  and  _163
REMARK   72  A    between atoms: _162  and  _165
REMARK   73  A    between atoms: _165  and  _166
REMARK   74  A    between atoms: _172  and  _174
REMARK   75  A    between atoms: _174  and  _175
REMARK   76  A    between atoms: _174  and  _177
REMARK   77  A    between atoms: _180  and  _182
REMARK   78  A    between atoms: _182  and  _183
REMARK   79  A    between atoms: _182  and  _185
REMARK   80  A    between atoms: _188  and  _190
REMARK   81  A    between atoms: _190  and  _191
REMARK   82  A    between atoms: _190  and  _193
REMARK   83  A    between atoms: _193  and  _194
REMARK   84  A    between atoms: _198  and  _199
REMARK   85  A    between atoms: _204  and  _206
REMARK   86  A    between atoms: _206  and  _207
REMARK   87  A    between atoms: _206  and  _209
REMARK   88  A    between atoms: _209  and  _210
REMARK   89  A    between atoms: _214  and  _215
REMARK   90  A    between atoms: _220  and  _222
REMARK   91  A    between atoms: _222  and  _223
REMARK   92  A    between atoms: _222  and  _225
REMARK   93  A    between atoms: _228  and  _230
REMARK   94  A    between atoms: _230  and  _231
REMARK   95  A    between atoms: _230  and  _233
REMARK   96  A    between atoms: _233  and  _234
REMARK   97  A    between atoms: _239  and  _241
REMARK   98  A    between atoms: _241  and  _242
REMARK   99  A    between atoms: _241  and  _244
REMARK  100  A    between atoms: _244  and  _245
REMARK  101  A    between atoms: _248  and  _250
REMARK  102  A    between atoms: _250  and  _251
REMARK  103  A    between atoms: _250  and  _253
REMARK  104  A    between atoms: _253  and  _254
REMARK  105  A    between atoms: _257  and  _259
REMARK  106  A    between atoms: _259  and  _260
REMARK  107  A    between atoms: _262  and  _264
REMARK  108  A    between atoms: _264  and  _265
REMARK  109  A    between atoms: _264  and  _267
REMARK  110  A    between atoms: _267  and  _268
REMARK  111  A    between atoms: _268  and  _269
REMARK  112  A    between atoms: _269  and  _270
REMARK  113  A    between atoms: _279  and  _281
REMARK  114  A    between atoms: _281  and  _282
REMARK  115  A    between atoms: _281  and  _284
REMARK  116  A    between atoms: _284  and  _285
REMARK  117  A    between atoms: _290  and  _292
REMARK  118  A    between atoms: _292  and  _293
REMARK  119  A    between atoms: _292  and  _295
REMARK  120  A    between atoms: _295  and  _296
REMARK  121  A    between atoms: _296  and  _297
REMARK  122  A    between atoms: _297  and  _298
REMARK  123  A    between atoms: _307  and  _309
REMARK  124  A    between atoms: _309  and  _310
REMARK  125  A    between atoms: _309  and  _312
REMARK  126  A    between atoms: _312  and  _313
REMARK  127  A    between atoms: _316  and  _318
REMARK  128  A    between atoms: _318  and  _319
REMARK  129  A    between atoms: _318  and  _321
REMARK  130  A    between atoms: _321  and  _322
REMARK  131  A    between atoms: _325  and  _327
REMARK  132  A    between atoms: _327  and  _328
REMARK  133  A    between atoms: _327  and  _330
REMARK  134  A    between atoms: _330  and  _331
REMARK  135  A    between atoms: _334  and  _336
REMARK  136  A    between atoms: _336  and  _337
REMARK  137  A    between atoms: _336  and  _339
REMARK  138  A    between atoms: _339  and  _340
REMARK  139  A    between atoms: _343  and  _345
REMARK  140  A    between atoms: _345  and  _346
REMARK  141  A    between atoms: _348  and  _350
REMARK  142  A    between atoms: _350  and  _351
REMARK  143  A    between atoms: _354  and  _356
REMARK  144  A    between atoms: _356  and  _357
REMARK  145  A    between atoms: _356  and  _359
REMARK  146  A    between atoms: _359  and  _360
REMARK  147  A    between atoms: _363  and  _365
REMARK  148  A    between atoms: _365  and  _366
REMARK  149  A    between atoms: _365  and  _368
REMARK  150  A    between atoms: _368  and  _369
REMARK  151  A    between atoms: _372  and  _374
REMARK  152  A    between atoms: _374  and  _375
REMARK  153  A    between atoms: _374  and  _377
REMARK  154  A    between atoms: _377  and  _378
REMARK  155  A    between atoms: _381  and  _383
REMARK  156  A    between atoms: _383  and  _384
REMARK  157  A    between atoms: _383  and  _386
REMARK  158  A    between atoms: _389  and  _391
REMARK  159  A    between atoms: _391  and  _392
REMARK  160  A    between atoms: _391  and  _394
REMARK  161  A    between atoms: _394  and  _395
REMARK  162  A    between atoms: _395  and  _396
REMARK  163  A    between atoms: _396  and  _397
REMARK  164  A    between atoms: _397  and  _398
REMARK  165  A    between atoms: _402  and  _404
REMARK  166  A    between atoms: _404  and  _405
REMARK  167  A    between atoms: _404  and  _407
REMARK  168  A    between atoms: _407  and  _408
REMARK  169  A    between atoms: _408  and  _409
REMARK  170  A    between atoms: _411  and  _413
REMARK  171  A    between atoms: _413  and  _414
REMARK  172  A    between atoms: _413  and  _416
REMARK  173  A    between atoms: _416  and  _417
REMARK  174  A    between atoms: _420  and  _422
REMARK  175  A    between atoms: _422  and  _423
REMARK  176  A    between atoms: _425  and  _427
REMARK  177  A    between atoms: _427  and  _428
REMARK  178  A    between atoms: _430  and  _432
REMARK  179  A    between atoms: _432  and  _433
REMARK  180  A    between atoms: _432  and  _435
REMARK  181  A    between atoms: _435  and  _436
REMARK  182  A    between atoms: _439  and  _441
REMARK  183  A    between atoms: _441  and  _442
REMARK  184  A    between atoms: _444  and  _446
REMARK  185  A    between atoms: _446  and  _447
REMARK  186  A    between atoms: _449  and  _451
REMARK  187  A    between atoms: _451  and  _452
REMARK  188  A    between atoms: _451  and  _454
REMARK  189  A    between atoms: _454  and  _455
REMARK  190  A    between atoms: _461  and  _463
REMARK  191  A    between atoms: _463  and  _464
REMARK  192  A    between atoms: _463  and  _466
REMARK  193  A    between atoms: _469  and  _471
REMARK  194  A    between atoms: _471  and  _472
REMARK  195  A    between atoms: _471  and  _474
REMARK  196  A    between atoms: _477  and  _479
REMARK  197  A    between atoms: _479  and  _480
REMARK  198  A    between atoms: _479  and  _482
REMARK  199  A    between atoms: _482  and  _483
REMARK  200  A    between atoms: _487  and  _488
REMARK  201  A    between atoms: _493  and  _495
REMARK  202  A    between atoms: _495  and  _496
REMARK  203  A    between atoms: _495  and  _498
REMARK  204  A    between atoms: _498  and  _499
REMARK  205  A    between atoms: _503  and  _504
REMARK  206  A    between atoms: _509  and  _511
REMARK  207  A    between atoms: _511  and  _512
REMARK  208  A    between atoms: _511  and  _514
REMARK  209  A    between atoms: _517  and  _519
REMARK  210  A    between atoms: _519  and  _520
REMARK  211  A    between atoms: _519  and  _522
REMARK  212  A    between atoms: _522  and  _523
REMARK  213  A    between atoms: _528  and  _530
REMARK  214  A    between atoms: _530  and  _531
REMARK  215  A    between atoms: _530  and  _533
REMARK  216  A    between atoms: _533  and  _534
REMARK  217  A    between atoms: _537  and  _539
REMARK  218  A    between atoms: _539  and  _540
REMARK  219  A    between atoms: _539  and  _542
REMARK  220  A    between atoms: _542  and  _543
REMARK  221  A    between atoms: _546  and  _548
REMARK  222  A    between atoms: _548  and  _549
REMARK  223  A    between atoms: _551  and  _553
REMARK  224  A    between atoms: _553  and  _554
REMARK  225  A    between atoms: _553  and  _556
REMARK  226  A    between atoms: _556  and  _557
REMARK  227  A    between atoms: _557  and  _558
REMARK  228  A    between atoms: _558  and  _559
REMARK                            x       y       z     vdW  Elec       q    Type
REMARK                         _______ _______ _______ _____ _____    ______ ____
ROOT
ATOM      1  CA  ILE A   6      13.197  28.408  11.515  0.00  0.00    +0.149 C 
ENDROOT
BRANCH   1   2
ATOM      2  C   ILE A   6      13.582  29.877  11.494  0.00  0.00    +0.241 C 
ATOM      3  N   ILE A   7      12.818  30.691  12.200  0.00  0.00    -0.297 N 
ATOM      4  H   ILE A   7      11.925  30.316  12.580  0.00  0.00    +0.150 HD
ATOM      5  O   ILE A   6      14.575  30.260  10.844  0.00  0.00    -0.273 OA
BRANCH   3   6
ATOM      6  CA  ILE A   7      13.149  32.079  12.478  0.00  0.00    +0.149 C 
BRANCH   6   7
ATOM      7  C   ILE A   7      13.750  32.105  13.867  0.00  0.00    +0.241 C 
ATOM      8  O   ILE A   7      13.062  31.861  14.869  0.00  0.00    -0.273 OA
ATOM      9  N   GLY A   8      15.051  32.379  13.923  0.00  0.00    -0.295 N 
ATOM     10  H   GLY A   8      15.567  32.596  13.047  0.00  0.00    +0.150 HD
BRANCH   9  11
ATOM     11  CA  GLY A   8      15.763  32.379  15.195  0.00  0.00    +0.176 C 
BRANCH  11  12
ATOM     12  C   GLY A   8      15.877  33.789  15.739  0.00  0.00    +0.243 C 
ATOM     13  N   ARG A   9      16.596  33.863  16.862  0.00  0.00    -0.297 N 
ATOM     14  H   ARG A   9      17.138  33.035  17.181  0.00  0.00    +0.150 HD
ATOM     15  O   GLY A   8      15.345  34.775  15.257  0.00  0.00    -0.273 OA
BRANCH  13  16
ATOM     16  CA  ARG A   9      16.629  35.107  17.654  0.00  0.00    +0.149 C 
BRANCH  16  17
ATOM     17  C   ARG A   9      17.166  36.280  16.882  0.00  0.00    +0.241 C 
ATOM     18  O   ARG A   9      16.762  37.415  17.154  0.00  0.00    -0.273 OA
ATOM     19  N   ASN A  10      18.084  36.061  15.948  0.00  0.00    -0.298 N 
ATOM     20  H   ASN A  10      18.396  35.091  15.740  0.00  0.00    +0.150 HD
BRANCH  19  21
ATOM     21  CA  ASN A  10      18.652  37.183  15.216  0.00  0.00    +0.146 C 
BRANCH  21  22
ATOM     22  C   ASN A  10      17.624  37.984  14.487  0.00  0.00    +0.227 C 
ATOM     23  O   ASN A  10      17.826  39.207  14.280  0.00  0.00    -0.286 OA
ENDBRANCH  21  22
BRANCH  21  24
ATOM     24  CB  ASN A  10      19.745  36.684  14.264  0.00  0.00    +0.112 C 
BRANCH  24  25
ATOM     25  CG  ASN A  10      19.216  35.976  13.036  0.00  0.00    +0.222 C 
ATOM     26  OD1 ASN A  10      18.446  35.009  13.160  0.00  0.00    -0.275 OA
ATOM     27  ND2 ASN A  10      19.593  36.452  11.873  0.00  0.00    -0.329 N 
ATOM     28 HD21 ASN A  10      20.240  37.265  11.829  0.00  0.00    +0.145 HD
ATOM     29 HD22 ASN A  10      19.245  36.017  10.995  0.00  0.00    +0.145 HD
ENDBRANCH  24  25
ENDBRANCH  21  24
ENDBRANCH  19  21
ENDBRANCH  16  17
BRANCH  16  30
ATOM     30  CB  ARG A   9      17.427  34.899  18.940  0.00  0.00    +0.033 C 
BRANCH  30  31
ATOM     31  CG  ARG A   9      16.810  33.944  19.905  0.00  0.00    +0.045 C 
BRANCH  31  32
ATOM     32  CD  ARG A   9      17.491  33.913  21.280  0.00  0.00    +0.174 C 
BRANCH  32  33
ATOM     33  NE  ARG A   9      18.884  33.450  21.140  0.00  0.00    -0.265 N 
ATOM     34  HE  ARG A   9      19.029  32.421  21.109  0.00  0.00    +0.259 HD
ATOM     35  CZ  ARG A   9      19.975  34.204  21.049  0.00  0.00    +0.342 C 
ATOM     36  NH2 ARG A   9      19.937  35.533  21.177  0.00  0.00    -0.292 N 
ATOM     37 HH21 ARG A   9      19.031  36.013  21.354  0.00  0.00    +0.255 HD
ATOM     38 HH22 ARG A   9      20.813  36.088  21.099  0.00  0.00    +0.255 HD
ATOM     39  NH1 ARG A   9      21.150  33.617  20.827  0.00  0.00    -0.292 N 
ATOM     40 HH11 ARG A   9      22.013  34.193  20.753  0.00  0.00    +0.255 HD
ATOM     41 HH12 ARG A   9      21.204  32.583  20.728  0.00  0.00    +0.255 HD
ENDBRANCH  32  33
ENDBRANCH  31  32
ENDBRANCH  30  31
ENDBRANCH  16  30
ENDBRANCH  13  16
ENDBRANCH  11  12
ENDBRANCH   9  11
ENDBRANCH   6   7
BRANCH   6  42
ATOM     42  CB  ILE A   7      11.946  32.999  12.396  0.00  0.00    +0.027 C 
ATOM     43  CG2 ILE A   7      12.375  34.436  12.682  0.00  0.00    +0.002 C 
BRANCH  42  44
ATOM     44  CG1 ILE A   7      11.198  32.851  11.068  0.00  0.00    +0.002 C 
ATOM     45  CD1 ILE A   7      12.036  33.072   9.859  0.00  0.00    +0.000 C 
ENDBRANCH  42  44
ENDBRANCH   6  42
ENDBRANCH   3   6
ENDBRANCH   1   2
BRANCH   1  48
ATOM     46  C   ASN A   5      12.127  27.274   9.628  0.00  0.00    +0.241 C 
ATOM     47  O   ASN A   5      11.034  27.211  10.191  0.00  0.00    -0.273 OA
ATOM     48  N   ILE A   6      13.193  27.872  10.135  0.00  0.00    -0.297 N 
ATOM     49  H   ILE A   6      14.048  27.968   9.550  0.00  0.00    +0.150 HD
BRANCH  46  50
ATOM     50  CA  ASN A   5      12.259  26.679   8.221  0.00  0.00    +0.158 C 
BRANCH  50  53
ATOM     51  C   VAL A   4      12.319  24.344   8.814  0.00  0.00    +0.241 C 
ATOM     52  O   VAL A   4      13.466  24.485   9.276  0.00  0.00    -0.273 OA
ATOM     53  N   ASN A   5      11.698  25.336   8.234  0.00  0.00    -0.297 N 
ATOM     54  H   ASN A   5      10.783  25.162   7.771  0.00  0.00    +0.150 HD
BRANCH  51  55
ATOM     55  CA  VAL A   4      11.633  22.994   8.952  0.00  0.00    +0.149 C 
BRANCH  55  57
ATOM     56  C   PRO A   3      12.403  20.917   7.896  0.00  0.00    +0.241 C 
ATOM     57  N   VAL A   4      12.633  21.996   8.581  0.00  0.00    -0.297 N 
ATOM     58  H   VAL A   4      13.611  22.164   8.892  0.00  0.00    +0.150 HD
ATOM     59  O   PRO A   3      11.278  20.682   7.419  0.00  0.00    -0.273 OA
BRANCH  56  65
ATOM     60  C   THR A   2      15.405  21.303   7.099  0.00  0.00    +0.246 C 
ATOM     61  N   PRO A   3      14.878  20.433   7.946  0.00  0.00    -0.272 N 
ATOM     62  CD  PRO A   3      15.518  19.825   9.116  0.00  0.00    +0.094 C 
ATOM     63  CG  PRO A   3      14.478  18.859   9.603  0.00  0.00    +0.024 C 
ATOM     64  CB  PRO A   3      13.362  18.741   8.639  0.00  0.00    +0.031 C 
ATOM     65  CA  PRO A   3      13.538  19.905   7.662  0.00  0.00    +0.152 C 
ATOM     66  O   THR A   2      14.755  21.628   6.090  0.00  0.00    -0.273 OA
BRANCH  60  67
ATOM     67  CA  THR A   2      16.775  21.869   7.439  0.00  0.00    +0.176 C 
BRANCH  67  70
ATOM     68  C   PRO A   1      18.392  21.014   5.810  0.00  0.00    +0.239 C 
ATOM     69  O   PRO A   1      18.515  20.040   6.510  0.00  0.00    -0.274 OA
ATOM     70  N   THR A   2      17.547  21.922   6.193  0.00  0.00    -0.295 N 
ATOM     71  H   THR A   2      17.408  22.745   5.573  0.00  0.00    +0.150 HD
BRANCH  68  73
ATOM     72  N   PRO A   1      19.951  22.233   4.338  0.00  0.00    -0.210 NA
ATOM     73  CA  PRO A   1      18.984  21.127   4.426  0.00  0.00    +0.149 C 
ATOM     74  CB  PRO A   1      19.822  19.901   4.010  0.00  0.00    +0.028 C 
ATOM     75  CG  PRO A   1      21.182  20.245   4.560  0.00  0.00    +0.021 C 
ATOM     76  CD  PRO A   1      21.310  21.727   4.299  0.00  0.00    +0.089 C 
ENDBRANCH  68  73
ENDBRANCH  67  70
BRANCH  67  77
ATOM     77  CB  THR A   2      16.622  23.260   8.040  0.00  0.00    +0.137 C 
ATOM     78  CG2 THR A   2      16.007  24.302   7.125  0.00  0.00    +0.034 C 
BRANCH  77  79
ATOM     79  OG1 THR A   2      15.754  23.040   9.166  0.00  0.00    -0.382 OA
ATOM     80  HG1 THR A   2      15.592  23.900   9.629  0.00  0.00    +0.210 HD
ENDBRANCH  77  79
ENDBRANCH  67  77
ENDBRANCH  60  67
ENDBRANCH  56  65
ENDBRANCH  55  57
BRANCH  55  81
ATOM     81  CB  VAL A   4      11.172  22.768  10.422  0.00  0.00    +0.027 C 
ATOM     82  CG2 VAL A   4      10.224  23.829  10.880  0.00  0.00    +0.002 C 
ATOM     83  CG1 VAL A   4      10.507  21.381  10.582  0.00  0.00    +0.002 C 
ENDBRANCH  55  81
ENDBRANCH  51  55
ENDBRANCH  50  53
BRANCH  50  84
ATOM     84  CB  ASN A   5      11.507  27.529   7.254  0.00  0.00    +0.114 C 
BRANCH  84  85
ATOM     85  CG  ASN A   5      11.522  27.047   5.832  0.00  0.00    +0.222 C 
ATOM     86  OD1 ASN A   5      12.604  26.599   5.368  0.00  0.00    -0.275 OA
ATOM     87  ND2 ASN A   5      10.419  27.071   5.131  0.00  0.00    -0.329 N 
ATOM     88 HD21 ASN A   5       9.545  27.449   5.549  0.00  0.00    +0.145 HD
ATOM     89 HD22 ASN A   5      10.415  26.712   4.155  0.00  0.00    +0.145 HD
ENDBRANCH  84  85
ENDBRANCH  50  84
ENDBRANCH  46  50
ENDBRANCH   1  48
BRANCH   1  90
ATOM     90  CB  ILE A   6      14.033  27.595  12.465  0.00  0.00    +0.027 C 
ATOM     91  CG2 ILE A   6      13.536  26.113  12.539  0.00  0.00    +0.002 C 
BRANCH  90  92
ATOM     92  CG1 ILE A   6      15.471  27.623  12.249  0.00  0.00    +0.002 C 
ATOM     93  CD1 ILE A   6      16.302  26.848  13.269  0.00  0.00    +0.000 C 
ENDBRANCH  90  92
ENDBRANCH   1  90
TORSDOF 33
REMARK  Name = ../refined-set-2016/3d1y/3d1y_pocket.pdb
REMARK  228 active torsions:
REMARK  status: ('A' for Active; 'I' for Inactive)
REMARK    1  A    between atoms: _1  and  _3
REMARK    2  A    between atoms: _3  and  _4
REMARK    3  A    between atoms: _3  and  _6
REMARK    4  A    between atoms: _6  and  _7
REMARK    5  A    between atoms: _7  and  _8
REMARK    6  A    between atoms: _8  and  _9
REMARK    7  A    between atoms: _18  and  _20
REMARK    8  A    between atoms: _20  and  _21
REMARK    9  A    between atoms: _20  and  _23
REMARK   10  A    between atoms: _23  and  _24
REMARK   11  A    between atoms: _27  and  _29
REMARK   12  A    between atoms: _29  and  _30
REMARK   13  A    between atoms: _29  and  _32
REMARK   14  A    between atoms: _32  and  _33
REMARK   15  A    between atoms: _36  and  _38
REMARK   16  A    between atoms: _38  and  _39
REMARK   17  A    between atoms: _38  and  _41
REMARK   18  A    between atoms: _41  and  _42
REMARK   19  A    between atoms: _45  and  _47
REMARK   20  A    between atoms: _47  and  _48
REMARK   21  A    between atoms: _47  and  _50
REMARK   22  A    between atoms: _50  and  _51
REMARK   23  A    between atoms: _54  and  _56
REMARK   24  A    between atoms: _56  and  _57
REMARK   25  A    between atoms: _59  and  _61
REMARK   26  A    between atoms: _61  and  _62
REMARK   27  A    between atoms: _65  and  _67
REMARK   28  A    between atoms: _67  and  _68
REMARK   29  A    between atoms: _67  and  _70
REMARK   30  A    between atoms: _70  and  _71
REMARK   31  A    between atoms: _74  and  _76
REMARK   32  A    between atoms: _76  and  _77
REMARK   33  A    between atoms: _76  and  _79
REMARK   34  A    between atoms: _79  and  _80
REMARK   35  A    between atoms: _83  and  _85
REMARK   36  A    between atoms: _85  and  _86
REMARK   37  A    between atoms: _85  and  _88
REMARK   38  A    between atoms: _88  and  _89
REMARK   39  A    between atoms: _92  and  _94
REMARK   40  A    between atoms: _94  and  _95
REMARK   41  A    between atoms: _94  and  _97
REMARK   42  A    between atoms: _100  and  _102
REMARK   43  A    between atoms: _102  and  _103
REMARK   44  A    between atoms: _102  and  _105
REMARK   45  A    between atoms: _105  and  _106
REMARK   46  A    between atoms: _106  and  _107
REMARK   47  A    between atoms: _107  and  _108
REMARK   48  A    between atoms: _108  and  _109
REMARK   49  A    between atoms: _113  and  _115
REMARK   50  A    between atoms: _115  and  _116
REMARK   51  A    between atoms: _115  and  _118
REMARK   52  A    between atoms: _118  and  _119
REMARK   53  A    between atoms: _119  and  _120
REMARK   54  A    between atoms: _122  and  _124
REMARK   55  A    between atoms: _124  and  _125
REMARK   56  A    between atoms: _124  and  _127
REMARK   57  A    between atoms: _127  and  _128
REMARK   58  A    between atoms: _131  and  _133
REMARK   59  A    between atoms: _133  and  _134
REMARK   60  A    between atoms: _136  and  _138
REMARK   61  A    between atoms: _138  and  _139
REMARK   62  A    between atoms: _141  and  _143
REMARK   63  A    between atoms: _143  and  _144
REMARK   64  A    between atoms: _143  and  _146
REMARK   65  A    between atoms: _146  and  _147
REMARK   66  A    between atoms: _150  and  _152
REMARK   67  A    between atoms: _152  and  _153
REMARK   68  A    between atoms: _155  and  _157
REMARK   69  A    between atoms: _157  and  _158
REMARK   70  A    between atoms: _160  and  _162
REMARK   71  A    between atoms: _162  and  _163
REMARK   72  A    between atoms: _162  and  _165
REMARK   73  A    between atoms: _165  and  _166
REMARK   74  A    between atoms: _172  and  _174
REMARK   75  A    between atoms: _174  and  _175
REMARK   76  A    between atoms: _174  and  _177
REMARK   77  A    between atoms: _180  and  _182
REMARK   78  A    between atoms: _182  and  _183
REMARK   79  A    between atoms: _182  and  _185
REMARK   80  A    between atoms: _188  and  _190
REMARK   81  A    between atoms: _190  and  _191
REMARK   82  A    between atoms: _190  and  _193
REMARK   83  A    between atoms: _193  and  _194
REMARK   84  A    between atoms: _198  and  _199
REMARK   85  A    between atoms: _204  and  _206
REMARK   86  A    between atoms: _206  and  _207
REMARK   87  A    between atoms: _206  and  _209
REMARK   88  A    between atoms: _209  and  _210
REMARK   89  A    between atoms: _214  and  _215
REMARK   90  A    between atoms: _220  and  _222
REMARK   91  A    between atoms: _222  and  _223
REMARK   92  A    between atoms: _222  and  _225
REMARK   93  A    between atoms: _228  and  _230
REMARK   94  A    between atoms: _230  and  _231
REMARK   95  A    between atoms: _230  and  _233
REMARK   96  A    between atoms: _233  and  _234
REMARK   97  A    between atoms: _239  and  _241
REMARK   98  A    between atoms: _241  and  _242
REMARK   99  A    between atoms: _241  and  _244
REMARK  100  A    between atoms: _244  and  _245
REMARK  101  A    between atoms: _248  and  _250
REMARK  102  A    between atoms: _250  and  _251
REMARK  103  A    between atoms: _250  and  _253
REMARK  104  A    between atoms: _253  and  _254
REMARK  105  A    between atoms: _257  and  _259
REMARK  106  A    between atoms: _259  and  _260
REMARK  107  A    between atoms: _262  and  _264
REMARK  108  A    between atoms: _264  and  _265
REMARK  109  A    between atoms: _264  and  _267
REMARK  110  A    between atoms: _267  and  _268
REMARK  111  A    between atoms: _268  and  _269
REMARK  112  A    between atoms: _269  and  _270
REMARK  113  A    between atoms: _279  and  _281
REMARK  114  A    between atoms: _281  and  _282
REMARK  115  A    between atoms: _281  and  _284
REMARK  116  A    between atoms: _284  and  _285
REMARK  117  A    between atoms: _290  and  _292
REMARK  118  A    between atoms: _292  and  _293
REMARK  119  A    between atoms: _292  and  _295
REMARK  120  A    between atoms: _295  and  _296
REMARK  121  A    between atoms: _296  and  _297
REMARK  122  A    between atoms: _297  and  _298
REMARK  123  A    between atoms: _307  and  _309
REMARK  124  A    between atoms: _309  and  _310
REMARK  125  A    between atoms: _309  and  _312
REMARK  126  A    between atoms: _312  and  _313
REMARK  127  A    between atoms: _316  and  _318
REMARK  128  A    between atoms: _318  and  _319
REMARK  129  A    between atoms: _318  and  _321
REMARK  130  A    between atoms: _321  and  _322
REMARK  131  A    between atoms: _325  and  _327
REMARK  132  A    between atoms: _327  and  _328
REMARK  133  A    between atoms: _327  and  _330
REMARK  134  A    between atoms: _330  and  _331
REMARK  135  A    between atoms: _334  and  _336
REMARK  136  A    between atoms: _336  and  _337
REMARK  137  A    between atoms: _336  and  _339
REMARK  138  A    between atoms: _339  and  _340
REMARK  139  A    between atoms: _343  and  _345
REMARK  140  A    between atoms: _345  and  _346
REMARK  141  A    between atoms: _348  and  _350
REMARK  142  A    between atoms: _350  and  _351
REMARK  143  A    between atoms: _354  and  _356
REMARK  144  A    between atoms: _356  and  _357
REMARK  145  A    between atoms: _356  and  _359
REMARK  146  A    between atoms: _359  and  _360
REMARK  147  A    between atoms: _363  and  _365
REMARK  148  A    between atoms: _365  and  _366
REMARK  149  A    between atoms: _365  and  _368
REMARK  150  A    between atoms: _368  and  _369
REMARK  151  A    between atoms: _372  and  _374
REMARK  152  A    between atoms: _374  and  _375
REMARK  153  A    between atoms: _374  and  _377
REMARK  154  A    between atoms: _377  and  _378
REMARK  155  A    between atoms: _381  and  _383
REMARK  156  A    between atoms: _383  and  _384
REMARK  157  A    between atoms: _383  and  _386
REMARK  158  A    between atoms: _389  and  _391
REMARK  159  A    between atoms: _391  and  _392
REMARK  160  A    between atoms: _391  and  _394
REMARK  161  A    between atoms: _394  and  _395
REMARK  162  A    between atoms: _395  and  _396
REMARK  163  A    between atoms: _396  and  _397
REMARK  164  A    between atoms: _397  and  _398
REMARK  165  A    between atoms: _402  and  _404
REMARK  166  A    between atoms: _404  and  _405
REMARK  167  A    between atoms: _404  and  _407
REMARK  168  A    between atoms: _407  and  _408
REMARK  169  A    between atoms: _408  and  _409
REMARK  170  A    between atoms: _411  and  _413
REMARK  171  A    between atoms: _413  and  _414
REMARK  172  A    between atoms: _413  and  _416
REMARK  173  A    between atoms: _416  and  _417
REMARK  174  A    between atoms: _420  and  _422
REMARK  175  A    between atoms: _422  and  _423
REMARK  176  A    between atoms: _425  and  _427
REMARK  177  A    between atoms: _427  and  _428
REMARK  178  A    between atoms: _430  and  _432
REMARK  179  A    between atoms: _432  and  _433
REMARK  180  A    between atoms: _432  and  _435
REMARK  181  A    between atoms: _435  and  _436
REMARK  182  A    between atoms: _439  and  _441
REMARK  183  A    between atoms: _441  and  _442
REMARK  184  A    between atoms: _444  and  _446
REMARK  185  A    between atoms: _446  and  _447
REMARK  186  A    between atoms: _449  and  _451
REMARK  187  A    between atoms: _451  and  _452
REMARK  188  A    between atoms: _451  and  _454
REMARK  189  A    between atoms: _454  and  _455
REMARK  190  A    between atoms: _461  and  _463
REMARK  191  A    between atoms: _463  and  _464
REMARK  192  A    between atoms: _463  and  _466
REMARK  193  A    between atoms: _469  and  _471
REMARK  194  A    between atoms: _471  and  _472
REMARK  195  A    between atoms: _471  and  _474
REMARK  196  A    between atoms: _477  and  _479
REMARK  197  A    between atoms: _479  and  _480
REMARK  198  A    between atoms: _479  and  _482
REMARK  199  A    between atoms: _482  and  _483
REMARK  200  A    between atoms: _487  and  _488
REMARK  201  A    between atoms: _493  and  _495
REMARK  202  A    between atoms: _495  and  _496
REMARK  203  A    between atoms: _495  and  _498
REMARK  204  A    between atoms: _498  and  _499
REMARK  205  A    between atoms: _503  and  _504
REMARK  206  A    between atoms: _509  and  _511
REMARK  207  A    between atoms: _511  and  _512
REMARK  208  A    between atoms: _511  and  _514
REMARK  209  A    between atoms: _517  and  _519
REMARK  210  A    between atoms: _519  and  _520
REMARK  211  A    between atoms: _519  and  _522
REMARK  212  A    between atoms: _522  and  _523
REMARK  213  A    between atoms: _528  and  _530
REMARK  214  A    between atoms: _530  and  _531
REMARK  215  A    between atoms: _530  and  _533
REMARK  216  A    between atoms: _533  and  _534
REMARK  217  A    between atoms: _537  and  _539
REMARK  218  A    between atoms: _539  and  _540
REMARK  219  A    between atoms: _539  and  _542
REMARK  220  A    between atoms: _542  and  _543
REMARK  221  A    between atoms: _546  and  _548
REMARK  222  A    between atoms: _548  and  _549
REMARK  223  A    between atoms: _551  and  _553
REMARK  224  A    between atoms: _553  and  _554
REMARK  225  A    between atoms: _553  and  _556
REMARK  226  A    between atoms: _556  and  _557
REMARK  227  A    between atoms: _557  and  _558
REMARK  228  A    between atoms: _558  and  _559
REMARK                            x       y       z     vdW  Elec       q    Type
REMARK                         _______ _______ _______ _____ _____    ______ ____
ROOT
ATOM      1  NE  ARG A   1      23.042  30.178  22.691  0.00  0.00    -0.265 N 
ATOM      2  CZ  ARG A   1      24.234  29.645  22.658  0.00  0.00    +0.342 C 
ATOM      3  NH2 ARG A   1      24.852  29.236  23.748  0.00  0.00    -0.292 N 
ATOM      4 HH21 ARG A   1      24.390  29.333  24.675  0.00  0.00    +0.255 HD
ATOM      5 HH22 ARG A   1      25.801  28.816  23.681  0.00  0.00    +0.255 HD
ATOM      6  NH1 ARG A   1      24.856  29.510  21.496  0.00  0.00    -0.292 N 
ATOM      7 HH11 ARG A   1      25.805  29.087  21.460  0.00  0.00    +0.255 HD
ATOM      8 HH12 ARG A   1      24.395  29.827  20.619  0.00  0.00    +0.255 HD
ATOM      9  HE  ARG A   1      22.618  30.452  21.782  0.00  0.00    +0.259 HD
ENDROOT
BRANCH   1  10
ATOM     10  CD  ARG A   1      22.256  30.421  23.894  0.00  0.00    +0.174 C 
BRANCH  10  11
ATOM     11  CG  ARG A   1      21.322  31.582  23.709  0.00  0.00    +0.045 C 
BRANCH  11  12
ATOM     12  CB  ARG A   1      20.549  31.942  24.951  0.00  0.00    +0.029 C 
BRANCH  12  13
ATOM     13  CA  ARG A   1      19.628  33.129  24.805  0.00  0.00    +0.133 C 
BRANCH  13  14
ATOM     14  N   ARG A   1      20.389  34.371  24.648  0.00  0.00    -0.239 NA
ATOM     15  H   ARG A   1      21.428  34.339  24.656  0.00  0.00    +0.142 HD
ENDBRANCH  13  14
BRANCH  13  16
ATOM     16  C   ARG A   1      18.695  33.204  26.006  0.00  0.00    +0.224 C 
ATOM     17  O   ARG A   1      19.132  33.648  27.075  0.00  0.00    -0.287 OA
ENDBRANCH  13  16
ENDBRANCH  12  13
ENDBRANCH  11  12
ENDBRANCH  10  11
ENDBRANCH   1  10
TORSDOF 6
REMARK  Name = ../refined-set-2016/3d1y/3d1y_pocket.pdb
REMARK  228 active torsions:
REMARK  status: ('A' for Active; 'I' for Inactive)
REMARK    1  A    between atoms: _1  and  _3
REMARK    2  A    between atoms: _3  and  _4
REMARK    3  A    between atoms: _3  and  _6
REMARK    4  A    between atoms: _6  and  _7
REMARK    5  A    between atoms: _7  and  _8
REMARK    6  A    between atoms: _8  and  _9
REMARK    7  A    between atoms: _18  and  _20
REMARK    8  A    between atoms: _20  and  _21
REMARK    9  A    between atoms: _20  and  _23
REMARK   10  A    between atoms: _23  and  _24
REMARK   11  A    between atoms: _27  and  _29
REMARK   12  A    between atoms: _29  and  _30
REMARK   13  A    between atoms: _29  and  _32
REMARK   14  A    between atoms: _32  and  _33
REMARK   15  A    between atoms: _36  and  _38
REMARK   16  A    between atoms: _38  and  _39
REMARK   17  A    between atoms: _38  and  _41
REMARK   18  A    between atoms: _41  and  _42
REMARK   19  A    between atoms: _45  and  _47
REMARK   20  A    between atoms: _47  and  _48
REMARK   21  A    between atoms: _47  and  _50
REMARK   22  A    between atoms: _50  and  _51
REMARK   23  A    between atoms: _54  and  _56
REMARK   24  A    between atoms: _56  and  _57
REMARK   25  A    between atoms: _59  and  _61
REMARK   26  A    between atoms: _61  and  _62
REMARK   27  A    between atoms: _65  and  _67
REMARK   28  A    between atoms: _67  and  _68
REMARK   29  A    between atoms: _67  and  _70
REMARK   30  A    between atoms: _70  and  _71
REMARK   31  A    between atoms: _74  and  _76
REMARK   32  A    between atoms: _76  and  _77
REMARK   33  A    between atoms: _76  and  _79
REMARK   34  A    between atoms: _79  and  _80
REMARK   35  A    between atoms: _83  and  _85
REMARK   36  A    between atoms: _85  and  _86
REMARK   37  A    between atoms: _85  and  _88
REMARK   38  A    between atoms: _88  and  _89
REMARK   39  A    between atoms: _92  and  _94
REMARK   40  A    between atoms: _94  and  _95
REMARK   41  A    between atoms: _94  and  _97
REMARK   42  A    between atoms: _100  and  _102
REMARK   43  A    between atoms: _102  and  _103
REMARK   44  A    between atoms: _102  and  _105
REMARK   45  A    between atoms: _105  and  _106
REMARK   46  A    between atoms: _106  and  _107
REMARK   47  A    between atoms: _107  and  _108
REMARK   48  A    between atoms: _108  and  _109
REMARK   49  A    between atoms: _113  and  _115
REMARK   50  A    between atoms: _115  and  _116
REMARK   51  A    between atoms: _115  and  _118
REMARK   52  A    between atoms: _118  and  _119
REMARK   53  A    between atoms: _119  and  _120
REMARK   54  A    between atoms: _122  and  _124
REMARK   55  A    between atoms: _124  and  _125
REMARK   56  A    between atoms: _124  and  _127
REMARK   57  A    between atoms: _127  and  _128
REMARK   58  A    between atoms: _131  and  _133
REMARK   59  A    between atoms: _133  and  _134
REMARK   60  A    between atoms: _136  and  _138
REMARK   61  A    between atoms: _138  and  _139
REMARK   62  A    between atoms: _141  and  _143
REMARK   63  A    between atoms: _143  and  _144
REMARK   64  A    between atoms: _143  and  _146
REMARK   65  A    between atoms: _146  and  _147
REMARK   66  A    between atoms: _150  and  _152
REMARK   67  A    between atoms: _152  and  _153
REMARK   68  A    between atoms: _155  and  _157
REMARK   69  A    between atoms: _157  and  _158
REMARK   70  A    between atoms: _160  and  _162
REMARK   71  A    between atoms: _162  and  _163
REMARK   72  A    between atoms: _162  and  _165
REMARK   73  A    between atoms: _165  and  _166
REMARK   74  A    between atoms: _172  and  _174
REMARK   75  A    between atoms: _174  and  _175
REMARK   76  A    between atoms: _174  and  _177
REMARK   77  A    between atoms: _180  and  _182
REMARK   78  A    between atoms: _182  and  _183
REMARK   79  A    between atoms: _182  and  _185
REMARK   80  A    between atoms: _188  and  _190
REMARK   81  A    between atoms: _190  and  _191
REMARK   82  A    between atoms: _190  and  _193
REMARK   83  A    between atoms: _193  and  _194
REMARK   84  A    between atoms: _198  and  _199
REMARK   85  A    between atoms: _204  and  _206
REMARK   86  A    between atoms: _206  and  _207
REMARK   87  A    between atoms: _206  and  _209
REMARK   88  A    between atoms: _209  and  _210
REMARK   89  A    between atoms: _214  and  _215
REMARK   90  A    between atoms: _220  and  _222
REMARK   91  A    between atoms: _222  and  _223
REMARK   92  A    between atoms: _222  and  _225
REMARK   93  A    between atoms: _228  and  _230
REMARK   94  A    between atoms: _230  and  _231
REMARK   95  A    between atoms: _230  and  _233
REMARK   96  A    between atoms: _233  and  _234
REMARK   97  A    between atoms: _239  and  _241
REMARK   98  A    between atoms: _241  and  _242
REMARK   99  A    between atoms: _241  and  _244
REMARK  100  A    between atoms: _244  and  _245
REMARK  101  A    between atoms: _248  and  _250
REMARK  102  A    between atoms: _250  and  _251
REMARK  103  A    between atoms: _250  and  _253
REMARK  104  A    between atoms: _253  and  _254
REMARK  105  A    between atoms: _257  and  _259
REMARK  106  A    between atoms: _259  and  _260
REMARK  107  A    between atoms: _262  and  _264
REMARK  108  A    between atoms: _264  and  _265
REMARK  109  A    between atoms: _264  and  _267
REMARK  110  A    between atoms: _267  and  _268
REMARK  111  A    between atoms: _268  and  _269
REMARK  112  A    between atoms: _269  and  _270
REMARK  113  A    between atoms: _279  and  _281
REMARK  114  A    between atoms: _281  and  _282
REMARK  115  A    between atoms: _281  and  _284
REMARK  116  A    between atoms: _284  and  _285
REMARK  117  A    between atoms: _290  and  _292
REMARK  118  A    between atoms: _292  and  _293
REMARK  119  A    between atoms: _292  and  _295
REMARK  120  A    between atoms: _295  and  _296
REMARK  121  A    between atoms: _296  and  _297
REMARK  122  A    between atoms: _297  and  _298
REMARK  123  A    between atoms: _307  and  _309
REMARK  124  A    between atoms: _309  and  _310
REMARK  125  A    between atoms: _309  and  _312
REMARK  126  A    between atoms: _312  and  _313
REMARK  127  A    between atoms: _316  and  _318
REMARK  128  A    between atoms: _318  and  _319
REMARK  129  A    between atoms: _318  and  _321
REMARK  130  A    between atoms: _321  and  _322
REMARK  131  A    between atoms: _325  and  _327
REMARK  132  A    between atoms: _327  and  _328
REMARK  133  A    between atoms: _327  and  _330
REMARK  134  A    between atoms: _330  and  _331
REMARK  135  A    between atoms: _334  and  _336
REMARK  136  A    between atoms: _336  and  _337
REMARK  137  A    between atoms: _336  and  _339
REMARK  138  A    between atoms: _339  and  _340
REMARK  139  A    between atoms: _343  and  _345
REMARK  140  A    between atoms: _345  and  _346
REMARK  141  A    between atoms: _348  and  _350
REMARK  142  A    between atoms: _350  and  _351
REMARK  143  A    between atoms: _354  and  _356
REMARK  144  A    between atoms: _356  and  _357
REMARK  145  A    between atoms: _356  and  _359
REMARK  146  A    between atoms: _359  and  _360
REMARK  147  A    between atoms: _363  and  _365
REMARK  148  A    between atoms: _365  and  _366
REMARK  149  A    between atoms: _365  and  _368
REMARK  150  A    between atoms: _368  and  _369
REMARK  151  A    between atoms: _372  and  _374
REMARK  152  A    between atoms: _374  and  _375
REMARK  153  A    between atoms: _374  and  _377
REMARK  154  A    between atoms: _377  and  _378
REMARK  155  A    between atoms: _381  and  _383
REMARK  156  A    between atoms: _383  and  _384
REMARK  157  A    between atoms: _383  and  _386
REMARK  158  A    between atoms: _389  and  _391
REMARK  159  A    between atoms: _391  and  _392
REMARK  160  A    between atoms: _391  and  _394
REMARK  161  A    between atoms: _394  and  _395
REMARK  162  A    between atoms: _395  and  _396
REMARK  163  A    between atoms: _396  and  _397
REMARK  164  A    between atoms: _397  and  _398
REMARK  165  A    between atoms: _402  and  _404
REMARK  166  A    between atoms: _404  and  _405
REMARK  167  A    between atoms: _404  and  _407
REMARK  168  A    between atoms: _407  and  _408
REMARK  169  A    between atoms: _408  and  _409
REMARK  170  A    between atoms: _411  and  _413
REMARK  171  A    between atoms: _413  and  _414
REMARK  172  A    between atoms: _413  and  _416
REMARK  173  A    between atoms: _416  and  _417
REMARK  174  A    between atoms: _420  and  _422
REMARK  175  A    between atoms: _422  and  _423
REMARK  176  A    between atoms: _425  and  _427
REMARK  177  A    between atoms: _427  and  _428
REMARK  178  A    between atoms: _430  and  _432
REMARK  179  A    between atoms: _432  and  _433
REMARK  180  A    between atoms: _432  and  _435
REMARK  181  A    between atoms: _435  and  _436
REMARK  182  A    between atoms: _439  and  _441
REMARK  183  A    between atoms: _441  and  _442
REMARK  184  A    between atoms: _444  and  _446
REMARK  185  A    between atoms: _446  and  _447
REMARK  186  A    between atoms: _449  and  _451
REMARK  187  A    between atoms: _451  and  _452
REMARK  188  A    between atoms: _451  and  _454
REMARK  189  A    between atoms: _454  and  _455
REMARK  190  A    between atoms: _461  and  _463
REMARK  191  A    between atoms: _463  and  _464
REMARK  192  A    between atoms: _463  and  _466
REMARK  193  A    between atoms: _469  and  _471
REMARK  194  A    between atoms: _471  and  _472
REMARK  195  A    between atoms: _471  and  _474
REMARK  196  A    between atoms: _477  and  _479
REMARK  197  A    between atoms: _479  and  _480
REMARK  198  A    between atoms: _479  and  _482
REMARK  199  A    between atoms: _482  and  _483
REMARK  200  A    between atoms: _487  and  _488
REMARK  201  A    between atoms: _493  and  _495
REMARK  202  A    between atoms: _495  and  _496
REMARK  203  A    between atoms: _495  and  _498
REMARK  204  A    between atoms: _498  and  _499
REMARK  205  A    between atoms: _503  and  _504
REMARK  206  A    between atoms: _509  and  _511
REMARK  207  A    between atoms: _511  and  _512
REMARK  208  A    between atoms: _511  and  _514
REMARK  209  A    between atoms: _517  and  _519
REMARK  210  A    between atoms: _519  and  _520
REMARK  211  A    between atoms: _519  and  _522
REMARK  212  A    between atoms: _522  and  _523
REMARK  213  A    between atoms: _528  and  _530
REMARK  214  A    between atoms: _530  and  _531
REMARK  215  A    between atoms: _530  and  _533
REMARK  216  A    between atoms: _533  and  _534
REMARK  217  A    between atoms: _537  and  _539
REMARK  218  A    between atoms: _539  and  _540
REMARK  219  A    between atoms: _539  and  _542
REMARK  220  A    between atoms: _542  and  _543
REMARK  221  A    between atoms: _546  and  _548
REMARK  222  A    between atoms: _548  and  _549
REMARK  223  A    between atoms: _551  and  _553
REMARK  224  A    between atoms: _553  and  _554
REMARK  225  A    between atoms: _553  and  _556
REMARK  226  A    between atoms: _556  and  _557
REMARK  227  A    between atoms: _557  and  _558
REMARK  228  A    between atoms: _558  and  _559
REMARK                            x       y       z     vdW  Elec       q    Type
REMARK                         _______ _______ _______ _____ _____    ______ ____
ROOT
ATOM      1  C   GLY A   5      10.716  24.217  18.898  0.00  0.00    +0.243 C 
ATOM      2  N   ALA A   6      10.804  23.858  20.152  0.00  0.00    -0.297 N 
ATOM      3  H   ALA A   6      10.818  24.604  20.877  0.00  0.00    +0.150 HD
ATOM      4  O   GLY A   5      10.693  23.397  17.982  0.00  0.00    -0.273 OA
ENDROOT
BRANCH   2   5
ATOM      5  CA  ALA A   6      10.883  22.475  20.589  0.00  0.00    +0.149 C 
ATOM      6  CB  ALA A   6      11.870  22.361  21.744  0.00  0.00    +0.031 C 
BRANCH   5   7
ATOM      7  C   ALA A   6       9.525  21.978  21.023  0.00  0.00    +0.241 C 
ATOM      8  O   ALA A   6       8.853  22.576  21.860  0.00  0.00    -0.273 OA
ATOM      9  N   ASP A   7       9.104  20.819  20.490  0.00  0.00    -0.297 N 
ATOM     10  H   ASP A   7       9.681  20.343  19.768  0.00  0.00    +0.150 HD
BRANCH   9  11
ATOM     11  CA  ASP A   7       7.854  20.229  20.914  0.00  0.00    +0.160 C 
BRANCH  11  12
ATOM     12  C   ASP A   7       7.961  19.699  22.328  0.00  0.00    +0.241 C 
ATOM     13  O   ASP A   7       6.987  19.713  23.115  0.00  0.00    -0.273 OA
ATOM     14  N   ASP A   8       9.143  19.169  22.663  0.00  0.00    -0.297 N 
ATOM     15  H   ASP A   8       9.932  19.336  22.006  0.00  0.00    +0.150 HD
BRANCH  14  16
ATOM     16  CA  ASP A   8       9.441  18.380  23.857  0.00  0.00    +0.160 C 
BRANCH  16  17
ATOM     17  C   ASP A   8      10.563  19.025  24.652  0.00  0.00    +0.241 C 
ATOM     18  N   THR A   9      10.669  18.581  25.902  0.00  0.00    -0.295 N 
ATOM     19  H   THR A   9       9.968  17.883  26.223  0.00  0.00    +0.150 HD
ATOM     20  O   ASP A   8      11.295  19.860  24.174  0.00  0.00    -0.273 OA
BRANCH  18  21
ATOM     21  CA  THR A   9      11.693  18.997  26.860  0.00  0.00    +0.176 C 
BRANCH  21  22
ATOM     22  C   THR A   9      12.773  17.959  26.928  0.00  0.00    +0.243 C 
ATOM     23  O   THR A   9      12.457  16.771  27.117  0.00  0.00    -0.273 OA
ATOM     24  N   VAL A  10      14.027  18.352  26.738  0.00  0.00    -0.298 N 
ATOM     25  H   VAL A  10      14.210  19.368  26.614  0.00  0.00    +0.150 HD
BRANCH  24  26
ATOM     26  CA  VAL A  10      15.162  17.438  26.693  0.00  0.00    +0.137 C 
BRANCH  26  27
ATOM     27  CB  VAL A  10      15.755  17.339  25.244  0.00  0.00    +0.026 C 
ATOM     28  CG2 VAL A  10      16.723  16.149  25.273  0.00  0.00    +0.002 C 
ATOM     29  CG1 VAL A  10      14.706  17.143  24.241  0.00  0.00    +0.002 C 
ENDBRANCH  26  27
BRANCH  26  30
ATOM     30  C   VAL A  10      16.213  17.918  27.650  0.00  0.00    +0.227 C 
ATOM     31  O   VAL A  10      16.681  19.060  27.581  0.00  0.00    -0.286 OA
ENDBRANCH  26  30
ENDBRANCH  24  26
ENDBRANCH  21  22
BRANCH  21  32
ATOM     32  CB  THR A   9      11.031  19.222  28.217  0.00  0.00    +0.137 C 
ATOM     33  CG2 THR A   9      11.981  19.457  29.369  0.00  0.00    +0.034 C 
BRANCH  32  34
ATOM     34  OG1 THR A   9      10.137  20.356  28.074  0.00  0.00    -0.382 OA
ATOM     35  HG1 THR A   9       9.457  20.154  27.383  0.00  0.00    +0.210 HD
ENDBRANCH  32  34
ENDBRANCH  21  32
ENDBRANCH  18  21
ENDBRANCH  16  17
BRANCH  16  36
ATOM     36  CB  ASP A   8       9.912  16.987  23.435  0.00  0.00    +0.143 C 
BRANCH  36  37
ATOM     37  CG  ASP A   8       8.951  16.275  22.528  0.00  0.00    +0.367 C 
ATOM     38  OD2 ASP A   8       7.760  16.214  22.896  0.00  0.00    -0.246 OA
ATOM     39  OD1 ASP A   8       9.431  15.783  21.471  0.00  0.00    -0.246 OA
ENDBRANCH  36  37
ENDBRANCH  16  36
ENDBRANCH  14  16
ENDBRANCH  11  12
BRANCH  11  40
ATOM     40  CB  ASP A   7       7.477  19.048  19.994  0.00  0.00    +0.143 C 
BRANCH  40  41
ATOM     41  CG  ASP A   7       7.190  19.383  18.552  0.00  0.00    +0.367 C 
ATOM     42  OD2 ASP A   7       6.953  20.565  18.200  0.00  0.00    -0.246 OA
ATOM     43  OD1 ASP A   7       7.186  18.404  17.794  0.00  0.00    -0.246 OA
ENDBRANCH  40  41
ENDBRANCH  11  40
ENDBRANCH   9  11
ENDBRANCH   5   7
ENDBRANCH   2   5
BRANCH   1  44
ATOM     44  CA  GLY A   5      10.651  25.693  18.554  0.00  0.00    +0.176 C 
BRANCH  44  47
ATOM     45  C   THR A   4       9.322  26.825  20.218  0.00  0.00    +0.243 C 
ATOM     46  O   THR A   4       8.247  26.378  19.750  0.00  0.00    -0.273 OA
ATOM     47  N   GLY A   5      10.483  26.594  19.676  0.00  0.00    -0.295 N 
ATOM     48  H   GLY A   5      11.321  27.074  20.063  0.00  0.00    +0.150 HD
BRANCH  45  49
ATOM     49  CA  THR A   4       9.257  27.715  21.438  0.00  0.00    +0.176 C 
BRANCH  49  52
ATOM     50  C   ASP A   3      11.056  26.786  22.742  0.00  0.00    +0.241 C 
ATOM     51  O   ASP A   3      10.520  25.657  22.752  0.00  0.00    -0.273 OA
ATOM     52  N   THR A   4      10.516  27.815  22.135  0.00  0.00    -0.295 N 
ATOM     53  H   THR A   4      11.010  28.730  22.157  0.00  0.00    +0.150 HD
BRANCH  50  54
ATOM     54  CA  ASP A   3      12.415  26.993  23.393  0.00  0.00    +0.160 C 
BRANCH  54  56
ATOM     55  C   LEU A   2      12.928  28.313  25.376  0.00  0.00    +0.241 C 
ATOM     56  N   ASP A   3      12.387  27.222  24.837  0.00  0.00    -0.297 N 
ATOM     57  H   ASP A   3      11.935  26.519  25.456  0.00  0.00    +0.150 HD
ATOM     58  O   LEU A   2      13.312  29.311  24.730  0.00  0.00    -0.273 OA
BRANCH  55  59
ATOM     59  CA  LEU A   2      13.071  28.308  26.898  0.00  0.00    +0.149 C 
BRANCH  59  61
ATOM     60  C   LEU A   1      15.214  27.136  27.156  0.00  0.00    +0.238 C 
ATOM     61  N   LEU A   2      14.518  28.273  27.202  0.00  0.00    -0.297 N 
ATOM     62  H   LEU A   2      15.004  29.156  27.458  0.00  0.00    +0.150 HD
ATOM     63  O   LEU A   1      14.716  26.053  26.888  0.00  0.00    -0.274 OA
BRANCH  60  64
ATOM     64  CA  LEU A   1      16.725  27.214  27.410  0.00  0.00    +0.145 C 
BRANCH  64  65
ATOM     65  N   LEU A   1      17.124  26.313  28.456  0.00  0.00    -0.238 NA
ATOM     66  H   LEU A   1      17.275  25.318  28.192  0.00  0.00    +0.142 HD
ENDBRANCH  64  65
BRANCH  64  67
ATOM     67  CB  LEU A   1      17.485  26.794  26.168  0.00  0.00    +0.026 C 
BRANCH  67  68
ATOM     68  CG  LEU A   1      17.370  27.595  24.911  0.00  0.00    +0.002 C 
ATOM     69  CD2 LEU A   1      17.950  28.970  25.093  0.00  0.00    +0.000 C 
ATOM     70  CD1 LEU A   1      18.099  26.873  23.765  0.00  0.00    +0.000 C 
ENDBRANCH  67  68
ENDBRANCH  64  67
ENDBRANCH  60  64
ENDBRANCH  59  61
BRANCH  59  71
ATOM     71  CB  LEU A   2      12.423  29.511  27.519  0.00  0.00    +0.029 C 
BRANCH  71  72
ATOM     72  CG  LEU A   2      12.537  29.652  29.029  0.00  0.00    +0.002 C 
ATOM     73  CD2 LEU A   2      12.044  28.412  29.726  0.00  0.00    +0.000 C 
ATOM     74  CD1 LEU A   2      11.783  30.902  29.473  0.00  0.00    +0.000 C 
ENDBRANCH  71  72
ENDBRANCH  59  71
ENDBRANCH  55  59
ENDBRANCH  54  56
BRANCH  54  75
ATOM     75  CB  ASP A   3      13.338  25.816  23.108  0.00  0.00    +0.143 C 
BRANCH  75  76
ATOM     76  CG  ASP A   3      13.556  25.724  21.585  0.00  0.00    +0.367 C 
ATOM     77  OD2 ASP A   3      14.324  24.818  21.279  0.00  0.00    -0.246 OA
ATOM     78  OD1 ASP A   3      13.023  26.583  20.822  0.00  0.00    -0.246 OA
ENDBRANCH  75  76
ENDBRANCH  54  75
ENDBRANCH  50  54
ENDBRANCH  49  52
BRANCH  49  79
ATOM     79  CB  THR A   4       8.734  29.108  21.013  0.00  0.00    +0.137 C 
ATOM     80  CG2 THR A   4       8.528  29.994  22.232  0.00  0.00    +0.034 C 
BRANCH  79  81
ATOM     81  OG1 THR A   4       9.672  29.746  20.151  0.00  0.00    -0.382 OA
ATOM     82  HG1 THR A   4       9.807  29.190  19.343  0.00  0.00    +0.210 HD
ENDBRANCH  79  81
ENDBRANCH  49  79
ENDBRANCH  45  49
ENDBRANCH  44  47
ENDBRANCH   1  44
TORSDOF 35
REMARK  Name = ../refined-set-2016/3d1y/3d1y_pocket.pdb
REMARK  228 active torsions:
REMARK  status: ('A' for Active; 'I' for Inactive)
REMARK    1  A    between atoms: _1  and  _3
REMARK    2  A    between atoms: _3  and  _4
REMARK    3  A    between atoms: _3  and  _6
REMARK    4  A    between atoms: _6  and  _7
REMARK    5  A    between atoms: _7  and  _8
REMARK    6  A    between atoms: _8  and  _9
REMARK    7  A    between atoms: _18  and  _20
REMARK    8  A    between atoms: _20  and  _21
REMARK    9  A    between atoms: _20  and  _23
REMARK   10  A    between atoms: _23  and  _24
REMARK   11  A    between atoms: _27  and  _29
REMARK   12  A    between atoms: _29  and  _30
REMARK   13  A    between atoms: _29  and  _32
REMARK   14  A    between atoms: _32  and  _33
REMARK   15  A    between atoms: _36  and  _38
REMARK   16  A    between atoms: _38  and  _39
REMARK   17  A    between atoms: _38  and  _41
REMARK   18  A    between atoms: _41  and  _42
REMARK   19  A    between atoms: _45  and  _47
REMARK   20  A    between atoms: _47  and  _48
REMARK   21  A    between atoms: _47  and  _50
REMARK   22  A    between atoms: _50  and  _51
REMARK   23  A    between atoms: _54  and  _56
REMARK   24  A    between atoms: _56  and  _57
REMARK   25  A    between atoms: _59  and  _61
REMARK   26  A    between atoms: _61  and  _62
REMARK   27  A    between atoms: _65  and  _67
REMARK   28  A    between atoms: _67  and  _68
REMARK   29  A    between atoms: _67  and  _70
REMARK   30  A    between atoms: _70  and  _71
REMARK   31  A    between atoms: _74  and  _76
REMARK   32  A    between atoms: _76  and  _77
REMARK   33  A    between atoms: _76  and  _79
REMARK   34  A    between atoms: _79  and  _80
REMARK   35  A    between atoms: _83  and  _85
REMARK   36  A    between atoms: _85  and  _86
REMARK   37  A    between atoms: _85  and  _88
REMARK   38  A    between atoms: _88  and  _89
REMARK   39  A    between atoms: _92  and  _94
REMARK   40  A    between atoms: _94  and  _95
REMARK   41  A    between atoms: _94  and  _97
REMARK   42  A    between atoms: _100  and  _102
REMARK   43  A    between atoms: _102  and  _103
REMARK   44  A    between atoms: _102  and  _105
REMARK   45  A    between atoms: _105  and  _106
REMARK   46  A    between atoms: _106  and  _107
REMARK   47  A    between atoms: _107  and  _108
REMARK   48  A    between atoms: _108  and  _109
REMARK   49  A    between atoms: _113  and  _115
REMARK   50  A    between atoms: _115  and  _116
REMARK   51  A    between atoms: _115  and  _118
REMARK   52  A    between atoms: _118  and  _119
REMARK   53  A    between atoms: _119  and  _120
REMARK   54  A    between atoms: _122  and  _124
REMARK   55  A    between atoms: _124  and  _125
REMARK   56  A    between atoms: _124  and  _127
REMARK   57  A    between atoms: _127  and  _128
REMARK   58  A    between atoms: _131  and  _133
REMARK   59  A    between atoms: _133  and  _134
REMARK   60  A    between atoms: _136  and  _138
REMARK   61  A    between atoms: _138  and  _139
REMARK   62  A    between atoms: _141  and  _143
REMARK   63  A    between atoms: _143  and  _144
REMARK   64  A    between atoms: _143  and  _146
REMARK   65  A    between atoms: _146  and  _147
REMARK   66  A    between atoms: _150  and  _152
REMARK   67  A    between atoms: _152  and  _153
REMARK   68  A    between atoms: _155  and  _157
REMARK   69  A    between atoms: _157  and  _158
REMARK   70  A    between atoms: _160  and  _162
REMARK   71  A    between atoms: _162  and  _163
REMARK   72  A    between atoms: _162  and  _165
REMARK   73  A    between atoms: _165  and  _166
REMARK   74  A    between atoms: _172  and  _174
REMARK   75  A    between atoms: _174  and  _175
REMARK   76  A    between atoms: _174  and  _177
REMARK   77  A    between atoms: _180  and  _182
REMARK   78  A    between atoms: _182  and  _183
REMARK   79  A    between atoms: _182  and  _185
REMARK   80  A    between atoms: _188  and  _190
REMARK   81  A    between atoms: _190  and  _191
REMARK   82  A    between atoms: _190  and  _193
REMARK   83  A    between atoms: _193  and  _194
REMARK   84  A    between atoms: _198  and  _199
REMARK   85  A    between atoms: _204  and  _206
REMARK   86  A    between atoms: _206  and  _207
REMARK   87  A    between atoms: _206  and  _209
REMARK   88  A    between atoms: _209  and  _210
REMARK   89  A    between atoms: _214  and  _215
REMARK   90  A    between atoms: _220  and  _222
REMARK   91  A    between atoms: _222  and  _223
REMARK   92  A    between atoms: _222  and  _225
REMARK   93  A    between atoms: _228  and  _230
REMARK   94  A    between atoms: _230  and  _231
REMARK   95  A    between atoms: _230  and  _233
REMARK   96  A    between atoms: _233  and  _234
REMARK   97  A    between atoms: _239  and  _241
REMARK   98  A    between atoms: _241  and  _242
REMARK   99  A    between atoms: _241  and  _244
REMARK  100  A    between atoms: _244  and  _245
REMARK  101  A    between atoms: _248  and  _250
REMARK  102  A    between atoms: _250  and  _251
REMARK  103  A    between atoms: _250  and  _253
REMARK  104  A    between atoms: _253  and  _254
REMARK  105  A    between atoms: _257  and  _259
REMARK  106  A    between atoms: _259  and  _260
REMARK  107  A    between atoms: _262  and  _264
REMARK  108  A    between atoms: _264  and  _265
REMARK  109  A    between atoms: _264  and  _267
REMARK  110  A    between atoms: _267  and  _268
REMARK  111  A    between atoms: _268  and  _269
REMARK  112  A    between atoms: _269  and  _270
REMARK  113  A    between atoms: _279  and  _281
REMARK  114  A    between atoms: _281  and  _282
REMARK  115  A    between atoms: _281  and  _284
REMARK  116  A    between atoms: _284  and  _285
REMARK  117  A    between atoms: _290  and  _292
REMARK  118  A    between atoms: _292  and  _293
REMARK  119  A    between atoms: _292  and  _295
REMARK  120  A    between atoms: _295  and  _296
REMARK  121  A    between atoms: _296  and  _297
REMARK  122  A    between atoms: _297  and  _298
REMARK  123  A    between atoms: _307  and  _309
REMARK  124  A    between atoms: _309  and  _310
REMARK  125  A    between atoms: _309  and  _312
REMARK  126  A    between atoms: _312  and  _313
REMARK  127  A    between atoms: _316  and  _318
REMARK  128  A    between atoms: _318  and  _319
REMARK  129  A    between atoms: _318  and  _321
REMARK  130  A    between atoms: _321  and  _322
REMARK  131  A    between atoms: _325  and  _327
REMARK  132  A    between atoms: _327  and  _328
REMARK  133  A    between atoms: _327  and  _330
REMARK  134  A    between atoms: _330  and  _331
REMARK  135  A    between atoms: _334  and  _336
REMARK  136  A    between atoms: _336  and  _337
REMARK  137  A    between atoms: _336  and  _339
REMARK  138  A    between atoms: _339  and  _340
REMARK  139  A    between atoms: _343  and  _345
REMARK  140  A    between atoms: _345  and  _346
REMARK  141  A    between atoms: _348  and  _350
REMARK  142  A    between atoms: _350  and  _351
REMARK  143  A    between atoms: _354  and  _356
REMARK  144  A    between atoms: _356  and  _357
REMARK  145  A    between atoms: _356  and  _359
REMARK  146  A    between atoms: _359  and  _360
REMARK  147  A    between atoms: _363  and  _365
REMARK  148  A    between atoms: _365  and  _366
REMARK  149  A    between atoms: _365  and  _368
REMARK  150  A    between atoms: _368  and  _369
REMARK  151  A    between atoms: _372  and  _374
REMARK  152  A    between atoms: _374  and  _375
REMARK  153  A    between atoms: _374  and  _377
REMARK  154  A    between atoms: _377  and  _378
REMARK  155  A    between atoms: _381  and  _383
REMARK  156  A    between atoms: _383  and  _384
REMARK  157  A    between atoms: _383  and  _386
REMARK  158  A    between atoms: _389  and  _391
REMARK  159  A    between atoms: _391  and  _392
REMARK  160  A    between atoms: _391  and  _394
REMARK  161  A    between atoms: _394  and  _395
REMARK  162  A    between atoms: _395  and  _396
REMARK  163  A    between atoms: _396  and  _397
REMARK  164  A    between atoms: _397  and  _398
REMARK  165  A    between atoms: _402  and  _404
REMARK  166  A    between atoms: _404  and  _405
REMARK  167  A    between atoms: _404  and  _407
REMARK  168  A    between atoms: _407  and  _408
REMARK  169  A    between atoms: _408  and  _409
REMARK  170  A    between atoms: _411  and  _413
REMARK  171  A    between atoms: _413  and  _414
REMARK  172  A    between atoms: _413  and  _416
REMARK  173  A    between atoms: _416  and  _417
REMARK  174  A    between atoms: _420  and  _422
REMARK  175  A    between atoms: _422  and  _423
REMARK  176  A    between atoms: _425  and  _427
REMARK  177  A    between atoms: _427  and  _428
REMARK  178  A    between atoms: _430  and  _432
REMARK  179  A    between atoms: _432  and  _433
REMARK  180  A    between atoms: _432  and  _435
REMARK  181  A    between atoms: _435  and  _436
REMARK  182  A    between atoms: _439  and  _441
REMARK  183  A    between atoms: _441  and  _442
REMARK  184  A    between atoms: _444  and  _446
REMARK  185  A    between atoms: _446  and  _447
REMARK  186  A    between atoms: _449  and  _451
REMARK  187  A    between atoms: _451  and  _452
REMARK  188  A    between atoms: _451  and  _454
REMARK  189  A    between atoms: _454  and  _455
REMARK  190  A    between atoms: _461  and  _463
REMARK  191  A    between atoms: _463  and  _464
REMARK  192  A    between atoms: _463  and  _466
REMARK  193  A    between atoms: _469  and  _471
REMARK  194  A    between atoms: _471  and  _472
REMARK  195  A    between atoms: _471  and  _474
REMARK  196  A    between atoms: _477  and  _479
REMARK  197  A    between atoms: _479  and  _480
REMARK  198  A    between atoms: _479  and  _482
REMARK  199  A    between atoms: _482  and  _483
REMARK  200  A    between atoms: _487  and  _488
REMARK  201  A    between atoms: _493  and  _495
REMARK  202  A    between atoms: _495  and  _496
REMARK  203  A    between atoms: _495  and  _498
REMARK  204  A    between atoms: _498  and  _499
REMARK  205  A    between atoms: _503  and  _504
REMARK  206  A    between atoms: _509  and  _511
REMARK  207  A    between atoms: _511  and  _512
REMARK  208  A    between atoms: _511  and  _514
REMARK  209  A    between atoms: _517  and  _519
REMARK  210  A    between atoms: _519  and  _520
REMARK  211  A    between atoms: _519  and  _522
REMARK  212  A    between atoms: _522  and  _523
REMARK  213  A    between atoms: _528  and  _530
REMARK  214  A    between atoms: _530  and  _531
REMARK  215  A    between atoms: _530  and  _533
REMARK  216  A    between atoms: _533  and  _534
REMARK  217  A    between atoms: _537  and  _539
REMARK  218  A    between atoms: _539  and  _540
REMARK  219  A    between atoms: _539  and  _542
REMARK  220  A    between atoms: _542  and  _543
REMARK  221  A    between atoms: _546  and  _548
REMARK  222  A    between atoms: _548  and  _549
REMARK  223  A    between atoms: _551  and  _553
REMARK  224  A    between atoms: _553  and  _554
REMARK  225  A    between atoms: _553  and  _556
REMARK  226  A    between atoms: _556  and  _557
REMARK  227  A    between atoms: _557  and  _558
REMARK  228  A    between atoms: _558  and  _559
REMARK                            x       y       z     vdW  Elec       q    Type
REMARK                         _______ _______ _______ _____ _____    ______ ____
ROOT
ATOM      1  C   GLY A   5      17.303  18.338  14.240  0.00  0.00    +0.243 C 
ATOM      2  N   ILE A   6      17.960  19.507  14.231  0.00  0.00    -0.297 N 
ATOM      3  H   ILE A   6      18.104  20.038  15.114  0.00  0.00    +0.150 HD
ATOM      4  O   GLY A   5      17.215  17.630  13.201  0.00  0.00    -0.273 OA
ENDROOT
BRANCH   2   5
ATOM      5  CA  ILE A   6      18.455  20.009  13.001  0.00  0.00    +0.149 C 
BRANCH   5   6
ATOM      6  C   ILE A   6      19.508  19.090  12.442  0.00  0.00    +0.241 C 
ATOM      7  N   GLY A   7      20.296  18.337  13.225  0.00  0.00    -0.295 N 
ATOM      8  H   GLY A   7      20.173  18.347  14.258  0.00  0.00    +0.150 HD
ATOM      9  O   ILE A   6      19.615  19.067  11.222  0.00  0.00    -0.273 OA
BRANCH   7  10
ATOM     10  CA  GLY A   7      21.327  17.504  12.615  0.00  0.00    +0.176 C 
BRANCH  10  11
ATOM     11  C   GLY A   7      20.971  16.056  12.417  0.00  0.00    +0.243 C 
ATOM     12  N   GLY A   8      19.770  15.649  12.771  0.00  0.00    -0.295 N 
ATOM     13  H   GLY A   8      19.110  16.343  13.175  0.00  0.00    +0.150 HD
ATOM     14  O   GLY A   7      21.816  15.290  11.866  0.00  0.00    -0.273 OA
BRANCH  12  15
ATOM     15  CA  GLY A   8      19.315  14.242  12.619  0.00  0.00    +0.176 C 
BRANCH  15  16
ATOM     16  C   GLY A   8      18.606  13.787  13.869  0.00  0.00    +0.243 C 
ATOM     17  O   GLY A   8      18.252  14.544  14.756  0.00  0.00    -0.273 OA
ATOM     18  N   PHE A   9      18.405  12.470  13.938  0.00  0.00    -0.297 N 
ATOM     19  H   PHE A   9      18.885  11.871  13.236  0.00  0.00    +0.150 HD
BRANCH  18  20
ATOM     20  CA  PHE A   9      17.560  11.808  14.928  0.00  0.00    +0.153 C 
BRANCH  20  21
ATOM     21  C   PHE A   9      18.447  11.182  16.006  0.00  0.00    +0.241 C 
ATOM     22  N   VAL A  10      17.960  11.229  17.264  0.00  0.00    -0.298 N 
ATOM     23  H   VAL A  10      17.048  11.704  17.422  0.00  0.00    +0.150 HD
ATOM     24  O   PHE A   9      19.541  10.718  15.747  0.00  0.00    -0.273 OA
BRANCH  22  25
ATOM     25  CA  VAL A  10      18.622  10.669  18.372  0.00  0.00    +0.137 C 
BRANCH  25  26
ATOM     26  CB  VAL A  10      19.286  11.769  19.188  0.00  0.00    +0.026 C 
ATOM     27  CG2 VAL A  10      18.228  12.746  19.625  0.00  0.00    +0.002 C 
ATOM     28  CG1 VAL A  10      20.343  12.512  18.337  0.00  0.00    +0.002 C 
ENDBRANCH  25  26
BRANCH  25  29
ATOM     29  C   VAL A  10      17.633   9.948  19.301  0.00  0.00    +0.227 C 
ATOM     30  O   VAL A  10      16.509  10.388  19.464  0.00  0.00    -0.286 OA
ENDBRANCH  25  29
ENDBRANCH  22  25
ENDBRANCH  20  21
BRANCH  20  31
ATOM     31  CB  PHE A   9      16.661  10.756  14.275  0.00  0.00    +0.055 C 
BRANCH  31  32
ATOM     32  CG  PHE A   9      15.622  11.353  13.346  0.00  0.00    -0.020 A 
ATOM     33  CD2 PHE A   9      14.346  11.673  13.783  0.00  0.00    -0.004 A 
ATOM     34  CE2 PHE A   9      13.429  12.233  12.905  0.00  0.00    -0.000 A 
ATOM     35  CZ  PHE A   9      13.760  12.482  11.592  0.00  0.00    -0.000 A 
ATOM     36  CE1 PHE A   9      15.025  12.160  11.137  0.00  0.00    -0.000 A 
ATOM     37  CD1 PHE A   9      15.936  11.604  12.016  0.00  0.00    -0.004 A 
ENDBRANCH  31  32
ENDBRANCH  20  31
ENDBRANCH  18  20
ENDBRANCH  15  16
ENDBRANCH  12  15
ENDBRANCH  10  11
ENDBRANCH   7  10
ENDBRANCH   5   6
BRANCH   5  38
ATOM     38  CB  ILE A   6      19.013  21.435  13.200  0.00  0.00    +0.027 C 
ATOM     39  CG2 ILE A   6      20.273  21.434  13.991  0.00  0.00    +0.002 C 
BRANCH  38  40
ATOM     40  CG1 ILE A   6      19.075  22.149  11.870  0.00  0.00    +0.002 C 
ATOM     41  CD1 ILE A   6      19.157  23.677  12.170  0.00  0.00    +0.000 C 
ENDBRANCH  38  40
ENDBRANCH   5  38
ENDBRANCH   2   5
BRANCH   1  42
ATOM     42  CA  GLY A   5      16.713  17.946  15.582  0.00  0.00    +0.176 C 
BRANCH  42  45
ATOM     43  C   GLY A   4      15.009  16.274  15.627  0.00  0.00    +0.243 C 
ATOM     44  O   GLY A   4      14.177  17.082  15.978  0.00  0.00    -0.273 OA
ATOM     45  N   GLY A   5      16.222  16.597  15.469  0.00  0.00    -0.295 N 
ATOM     46  H   GLY A   5      16.904  15.845  15.245  0.00  0.00    +0.150 HD
BRANCH  43  47
ATOM     47  CA  GLY A   4      14.643  14.812  15.404  0.00  0.00    +0.176 C 
BRANCH  47  50
ATOM     48  C   ILE A   3      14.476  13.350  17.324  0.00  0.00    +0.241 C 
ATOM     49  O   ILE A   3      15.594  12.884  17.180  0.00  0.00    -0.273 OA
ATOM     50  N   GLY A   4      13.956  14.277  16.568  0.00  0.00    -0.295 N 
ATOM     51  H   GLY A   4      13.014  14.647  16.807  0.00  0.00    +0.150 HD
BRANCH  48  52
ATOM     52  CA  ILE A   3      13.576  12.875  18.450  0.00  0.00    +0.149 C 
BRANCH  52  54
ATOM     53  C   MET A   2      12.954  10.536  18.565  0.00  0.00    +0.241 C 
ATOM     54  N   ILE A   3      13.876  11.465  18.753  0.00  0.00    -0.297 N 
ATOM     55  H   ILE A   3      14.814  11.200  19.115  0.00  0.00    +0.150 HD
ATOM     56  O   MET A   2      11.789  10.805  18.319  0.00  0.00    -0.273 OA
BRANCH  53  57
ATOM     57  CA  MET A   2      13.306   9.074  18.830  0.00  0.00    +0.149 C 
BRANCH  57  60
ATOM     58  C   LYS A   1      12.716   8.306  21.078  0.00  0.00    +0.238 C 
ATOM     59  O   LYS A   1      13.834   8.371  21.542  0.00  0.00    -0.274 OA
ATOM     60  N   MET A   2      12.428   8.551  19.811  0.00  0.00    -0.297 N 
ATOM     61  H   MET A   2      11.458   8.338  19.503  0.00  0.00    +0.150 HD
BRANCH  58  62
ATOM     62  CA  LYS A   1      11.537   7.937  21.965  0.00  0.00    +0.145 C 
BRANCH  62  63
ATOM     63  N   LYS A   1      11.971   6.899  22.891  0.00  0.00    -0.238 NA
ATOM     64  H   LYS A   1      12.972   6.862  23.171  0.00  0.00    +0.142 HD
ENDBRANCH  62  63
BRANCH  62  65
ATOM     65  CB  LYS A   1      11.029   9.169  22.731  0.00  0.00    +0.026 C 
BRANCH  65  66
ATOM     66  CG  LYS A   1      10.317  10.167  21.825  0.00  0.00    -0.000 C 
BRANCH  66  67
ATOM     67  CD  LYS A   1       9.342  11.127  22.353  0.00  0.00    -0.024 C 
BRANCH  67  68
ATOM     68  CE  LYS A   1       8.557  11.863  21.247  0.00  0.00    -0.086 C 
BRANCH  68  69
ATOM     69  NZ  LYS A   1       7.112  11.503  21.368  0.00  0.00    +0.380 N 
ATOM     70  HZ1 LYS A   1       6.761  11.791  22.304  0.00  0.00    -0.089 HD
ATOM     71  HZ2 LYS A   1       7.002  10.475  21.257  0.00  0.00    -0.089 HD
ATOM     72  HZ3 LYS A   1       6.571  11.993  20.627  0.00  0.00    -0.089 HD
ENDBRANCH  68  69
ENDBRANCH  67  68
ENDBRANCH  66  67
ENDBRANCH  65  66
ENDBRANCH  62  65
ENDBRANCH  58  62
ENDBRANCH  57  60
BRANCH  57  73
ATOM     73  CB  MET A   2      13.288   8.154  17.607  0.00  0.00    +0.041 C 
BRANCH  73  74
ATOM     74  CG  MET A   2      14.423   7.080  17.657  0.00  0.00    +0.060 C 
BRANCH  74  75
ATOM     75  SD  MET A   2      15.851   7.983  16.919  0.00  0.00    -0.139 S 
ATOM     76  CE  MET A   2      16.249   6.781  15.648  0.00  0.00    +0.069 C 
ENDBRANCH  74  75
ENDBRANCH  73  74
ENDBRANCH  57  73
ENDBRANCH  53  57
ENDBRANCH  52  54
BRANCH  52  77
ATOM     77  CB  ILE A   3      13.710  13.754  19.702  0.00  0.00    +0.027 C 
ATOM     78  CG2 ILE A   3      12.617  13.417  20.681  0.00  0.00    +0.002 C 
BRANCH  77  79
ATOM     79  CG1 ILE A   3      15.072  13.701  20.330  0.00  0.00    +0.002 C 
ATOM     80  CD1 ILE A   3      15.313  14.594  21.527  0.00  0.00    +0.000 C 
ENDBRANCH  77  79
ENDBRANCH  52  77
ENDBRANCH  48  52
ENDBRANCH  47  50
ENDBRANCH  43  47
ENDBRANCH  42  45
ENDBRANCH   1  42
TORSDOF 35
REMARK  Name = ../refined-set-2016/3d1y/3d1y_pocket.pdb
REMARK  228 active torsions:
REMARK  status: ('A' for Active; 'I' for Inactive)
REMARK    1  A    between atoms: _1  and  _3
REMARK    2  A    between atoms: _3  and  _4
REMARK    3  A    between atoms: _3  and  _6
REMARK    4  A    between atoms: _6  and  _7
REMARK    5  A    between atoms: _7  and  _8
REMARK    6  A    between atoms: _8  and  _9
REMARK    7  A    between atoms: _18  and  _20
REMARK    8  A    between atoms: _20  and  _21
REMARK    9  A    between atoms: _20  and  _23
REMARK   10  A    between atoms: _23  and  _24
REMARK   11  A    between atoms: _27  and  _29
REMARK   12  A    between atoms: _29  and  _30
REMARK   13  A    between atoms: _29  and  _32
REMARK   14  A    between atoms: _32  and  _33
REMARK   15  A    between atoms: _36  and  _38
REMARK   16  A    between atoms: _38  and  _39
REMARK   17  A    between atoms: _38  and  _41
REMARK   18  A    between atoms: _41  and  _42
REMARK   19  A    between atoms: _45  and  _47
REMARK   20  A    between atoms: _47  and  _48
REMARK   21  A    between atoms: _47  and  _50
REMARK   22  A    between atoms: _50  and  _51
REMARK   23  A    between atoms: _54  and  _56
REMARK   24  A    between atoms: _56  and  _57
REMARK   25  A    between atoms: _59  and  _61
REMARK   26  A    between atoms: _61  and  _62
REMARK   27  A    between atoms: _65  and  _67
REMARK   28  A    between atoms: _67  and  _68
REMARK   29  A    between atoms: _67  and  _70
REMARK   30  A    between atoms: _70  and  _71
REMARK   31  A    between atoms: _74  and  _76
REMARK   32  A    between atoms: _76  and  _77
REMARK   33  A    between atoms: _76  and  _79
REMARK   34  A    between atoms: _79  and  _80
REMARK   35  A    between atoms: _83  and  _85
REMARK   36  A    between atoms: _85  and  _86
REMARK   37  A    between atoms: _85  and  _88
REMARK   38  A    between atoms: _88  and  _89
REMARK   39  A    between atoms: _92  and  _94
REMARK   40  A    between atoms: _94  and  _95
REMARK   41  A    between atoms: _94  and  _97
REMARK   42  A    between atoms: _100  and  _102
REMARK   43  A    between atoms: _102  and  _103
REMARK   44  A    between atoms: _102  and  _105
REMARK   45  A    between atoms: _105  and  _106
REMARK   46  A    between atoms: _106  and  _107
REMARK   47  A    between atoms: _107  and  _108
REMARK   48  A    between atoms: _108  and  _109
REMARK   49  A    between atoms: _113  and  _115
REMARK   50  A    between atoms: _115  and  _116
REMARK   51  A    between atoms: _115  and  _118
REMARK   52  A    between atoms: _118  and  _119
REMARK   53  A    between atoms: _119  and  _120
REMARK   54  A    between atoms: _122  and  _124
REMARK   55  A    between atoms: _124  and  _125
REMARK   56  A    between atoms: _124  and  _127
REMARK   57  A    between atoms: _127  and  _128
REMARK   58  A    between atoms: _131  and  _133
REMARK   59  A    between atoms: _133  and  _134
REMARK   60  A    between atoms: _136  and  _138
REMARK   61  A    between atoms: _138  and  _139
REMARK   62  A    between atoms: _141  and  _143
REMARK   63  A    between atoms: _143  and  _144
REMARK   64  A    between atoms: _143  and  _146
REMARK   65  A    between atoms: _146  and  _147
REMARK   66  A    between atoms: _150  and  _152
REMARK   67  A    between atoms: _152  and  _153
REMARK   68  A    between atoms: _155  and  _157
REMARK   69  A    between atoms: _157  and  _158
REMARK   70  A    between atoms: _160  and  _162
REMARK   71  A    between atoms: _162  and  _163
REMARK   72  A    between atoms: _162  and  _165
REMARK   73  A    between atoms: _165  and  _166
REMARK   74  A    between atoms: _172  and  _174
REMARK   75  A    between atoms: _174  and  _175
REMARK   76  A    between atoms: _174  and  _177
REMARK   77  A    between atoms: _180  and  _182
REMARK   78  A    between atoms: _182  and  _183
REMARK   79  A    between atoms: _182  and  _185
REMARK   80  A    between atoms: _188  and  _190
REMARK   81  A    between atoms: _190  and  _191
REMARK   82  A    between atoms: _190  and  _193
REMARK   83  A    between atoms: _193  and  _194
REMARK   84  A    between atoms: _198  and  _199
REMARK   85  A    between atoms: _204  and  _206
REMARK   86  A    between atoms: _206  and  _207
REMARK   87  A    between atoms: _206  and  _209
REMARK   88  A    between atoms: _209  and  _210
REMARK   89  A    between atoms: _214  and  _215
REMARK   90  A    between atoms: _220  and  _222
REMARK   91  A    between atoms: _222  and  _223
REMARK   92  A    between atoms: _222  and  _225
REMARK   93  A    between atoms: _228  and  _230
REMARK   94  A    between atoms: _230  and  _231
REMARK   95  A    between atoms: _230  and  _233
REMARK   96  A    between atoms: _233  and  _234
REMARK   97  A    between atoms: _239  and  _241
REMARK   98  A    between atoms: _241  and  _242
REMARK   99  A    between atoms: _241  and  _244
REMARK  100  A    between atoms: _244  and  _245
REMARK  101  A    between atoms: _248  and  _250
REMARK  102  A    between atoms: _250  and  _251
REMARK  103  A    between atoms: _250  and  _253
REMARK  104  A    between atoms: _253  and  _254
REMARK  105  A    between atoms: _257  and  _259
REMARK  106  A    between atoms: _259  and  _260
REMARK  107  A    between atoms: _262  and  _264
REMARK  108  A    between atoms: _264  and  _265
REMARK  109  A    between atoms: _264  and  _267
REMARK  110  A    between atoms: _267  and  _268
REMARK  111  A    between atoms: _268  and  _269
REMARK  112  A    between atoms: _269  and  _270
REMARK  113  A    between atoms: _279  and  _281
REMARK  114  A    between atoms: _281  and  _282
REMARK  115  A    between atoms: _281  and  _284
REMARK  116  A    between atoms: _284  and  _285
REMARK  117  A    between atoms: _290  and  _292
REMARK  118  A    between atoms: _292  and  _293
REMARK  119  A    between atoms: _292  and  _295
REMARK  120  A    between atoms: _295  and  _296
REMARK  121  A    between atoms: _296  and  _297
REMARK  122  A    between atoms: _297  and  _298
REMARK  123  A    between atoms: _307  and  _309
REMARK  124  A    between atoms: _309  and  _310
REMARK  125  A    between atoms: _309  and  _312
REMARK  126  A    between atoms: _312  and  _313
REMARK  127  A    between atoms: _316  and  _318
REMARK  128  A    between atoms: _318  and  _319
REMARK  129  A    between atoms: _318  and  _321
REMARK  130  A    between atoms: _321  and  _322
REMARK  131  A    between atoms: _325  and  _327
REMARK  132  A    between atoms: _327  and  _328
REMARK  133  A    between atoms: _327  and  _330
REMARK  134  A    between atoms: _330  and  _331
REMARK  135  A    between atoms: _334  and  _336
REMARK  136  A    between atoms: _336  and  _337
REMARK  137  A    between atoms: _336  and  _339
REMARK  138  A    between atoms: _339  and  _340
REMARK  139  A    between atoms: _343  and  _345
REMARK  140  A    between atoms: _345  and  _346
REMARK  141  A    between atoms: _348  and  _350
REMARK  142  A    between atoms: _350  and  _351
REMARK  143  A    between atoms: _354  and  _356
REMARK  144  A    between atoms: _356  and  _357
REMARK  145  A    between atoms: _356  and  _359
REMARK  146  A    between atoms: _359  and  _360
REMARK  147  A    between atoms: _363  and  _365
REMARK  148  A    between atoms: _365  and  _366
REMARK  149  A    between atoms: _365  and  _368
REMARK  150  A    between atoms: _368  and  _369
REMARK  151  A    between atoms: _372  and  _374
REMARK  152  A    between atoms: _374  and  _375
REMARK  153  A    between atoms: _374  and  _377
REMARK  154  A    between atoms: _377  and  _378
REMARK  155  A    between atoms: _381  and  _383
REMARK  156  A    between atoms: _383  and  _384
REMARK  157  A    between atoms: _383  and  _386
REMARK  158  A    between atoms: _389  and  _391
REMARK  159  A    between atoms: _391  and  _392
REMARK  160  A    between atoms: _391  and  _394
REMARK  161  A    between atoms: _394  and  _395
REMARK  162  A    between atoms: _395  and  _396
REMARK  163  A    between atoms: _396  and  _397
REMARK  164  A    between atoms: _397  and  _398
REMARK  165  A    between atoms: _402  and  _404
REMARK  166  A    between atoms: _404  and  _405
REMARK  167  A    between atoms: _404  and  _407
REMARK  168  A    between atoms: _407  and  _408
REMARK  169  A    between atoms: _408  and  _409
REMARK  170  A    between atoms: _411  and  _413
REMARK  171  A    between atoms: _413  and  _414
REMARK  172  A    between atoms: _413  and  _416
REMARK  173  A    between atoms: _416  and  _417
REMARK  174  A    between atoms: _420  and  _422
REMARK  175  A    between atoms: _422  and  _423
REMARK  176  A    between atoms: _425  and  _427
REMARK  177  A    between atoms: _427  and  _428
REMARK  178  A    between atoms: _430  and  _432
REMARK  179  A    between atoms: _432  and  _433
REMARK  180  A    between atoms: _432  and  _435
REMARK  181  A    between atoms: _435  and  _436
REMARK  182  A    between atoms: _439  and  _441
REMARK  183  A    between atoms: _441  and  _442
REMARK  184  A    between atoms: _444  and  _446
REMARK  185  A    between atoms: _446  and  _447
REMARK  186  A    between atoms: _449  and  _451
REMARK  187  A    between atoms: _451  and  _452
REMARK  188  A    between atoms: _451  and  _454
REMARK  189  A    between atoms: _454  and  _455
REMARK  190  A    between atoms: _461  and  _463
REMARK  191  A    between atoms: _463  and  _464
REMARK  192  A    between atoms: _463  and  _466
REMARK  193  A    between atoms: _469  and  _471
REMARK  194  A    between atoms: _471  and  _472
REMARK  195  A    between atoms: _471  and  _474
REMARK  196  A    between atoms: _477  and  _479
REMARK  197  A    between atoms: _479  and  _480
REMARK  198  A    between atoms: _479  and  _482
REMARK  199  A    between atoms: _482  and  _483
REMARK  200  A    between atoms: _487  and  _488
REMARK  201  A    between atoms: _493  and  _495
REMARK  202  A    between atoms: _495  and  _496
REMARK  203  A    between atoms: _495  and  _498
REMARK  204  A    between atoms: _498  and  _499
REMARK  205  A    between atoms: _503  and  _504
REMARK  206  A    between atoms: _509  and  _511
REMARK  207  A    between atoms: _511  and  _512
REMARK  208  A    between atoms: _511  and  _514
REMARK  209  A    between atoms: _517  and  _519
REMARK  210  A    between atoms: _519  and  _520
REMARK  211  A    between atoms: _519  and  _522
REMARK  212  A    between atoms: _522  and  _523
REMARK  213  A    between atoms: _528  and  _530
REMARK  214  A    between atoms: _530  and  _531
REMARK  215  A    between atoms: _530  and  _533
REMARK  216  A    between atoms: _533  and  _534
REMARK  217  A    between atoms: _537  and  _539
REMARK  218  A    between atoms: _539  and  _540
REMARK  219  A    between atoms: _539  and  _542
REMARK  220  A    between atoms: _542  and  _543
REMARK  221  A    between atoms: _546  and  _548
REMARK  222  A    between atoms: _548  and  _549
REMARK  223  A    between atoms: _551  and  _553
REMARK  224  A    between atoms: _553  and  _554
REMARK  225  A    between atoms: _553  and  _556
REMARK  226  A    between atoms: _556  and  _557
REMARK  227  A    between atoms: _557  and  _558
REMARK  228  A    between atoms: _558  and  _559
REMARK                            x       y       z     vdW  Elec       q    Type
REMARK                         _______ _______ _______ _____ _____    ______ ____
ROOT
ATOM      1  CA  VAL A   1      16.307   9.398  24.313  0.00  0.00    +0.133 C 
ENDROOT
BRANCH   1   2
ATOM      2  CB  VAL A   1      15.830  10.867  24.314  0.00  0.00    +0.023 C 
ATOM      3  CG2 VAL A   1      14.425  10.968  23.748  0.00  0.00    +0.002 C 
ATOM      4  CG1 VAL A   1      16.780  11.748  23.526  0.00  0.00    +0.002 C 
ENDBRANCH   1   2
BRANCH   1   5
ATOM      5  N   VAL A   1      16.379   8.857  22.961  0.00  0.00    -0.239 NA
ATOM      6  H   VAL A   1      15.494   8.556  22.505  0.00  0.00    +0.142 HD
ENDBRANCH   1   5
BRANCH   1   7
ATOM      7  C   VAL A   1      15.440   8.513  25.185  0.00  0.00    +0.224 C 
ATOM      8  O   VAL A   1      14.724   7.617  24.716  0.00  0.00    -0.287 OA
ENDBRANCH   1   7
TORSDOF 3
REMARK  Name = ../refined-set-2016/3d1y/3d1y_pocket.pdb
REMARK  228 active torsions:
REMARK  status: ('A' for Active; 'I' for Inactive)
REMARK    1  A    between atoms: _1  and  _3
REMARK    2  A    between atoms: _3  and  _4
REMARK    3  A    between atoms: _3  and  _6
REMARK    4  A    between atoms: _6  and  _7
REMARK    5  A    between atoms: _7  and  _8
REMARK    6  A    between atoms: _8  and  _9
REMARK    7  A    between atoms: _18  and  _20
REMARK    8  A    between atoms: _20  and  _21
REMARK    9  A    between atoms: _20  and  _23
REMARK   10  A    between atoms: _23  and  _24
REMARK   11  A    between atoms: _27  and  _29
REMARK   12  A    between atoms: _29  and  _30
REMARK   13  A    between atoms: _29  and  _32
REMARK   14  A    between atoms: _32  and  _33
REMARK   15  A    between atoms: _36  and  _38
REMARK   16  A    between atoms: _38  and  _39
REMARK   17  A    between atoms: _38  and  _41
REMARK   18  A    between atoms: _41  and  _42
REMARK   19  A    between atoms: _45  and  _47
REMARK   20  A    between atoms: _47  and  _48
REMARK   21  A    between atoms: _47  and  _50
REMARK   22  A    between atoms: _50  and  _51
REMARK   23  A    between atoms: _54  and  _56
REMARK   24  A    between atoms: _56  and  _57
REMARK   25  A    between atoms: _59  and  _61
REMARK   26  A    between atoms: _61  and  _62
REMARK   27  A    between atoms: _65  and  _67
REMARK   28  A    between atoms: _67  and  _68
REMARK   29  A    between atoms: _67  and  _70
REMARK   30  A    between atoms: _70  and  _71
REMARK   31  A    between atoms: _74  and  _76
REMARK   32  A    between atoms: _76  and  _77
REMARK   33  A    between atoms: _76  and  _79
REMARK   34  A    between atoms: _79  and  _80
REMARK   35  A    between atoms: _83  and  _85
REMARK   36  A    between atoms: _85  and  _86
REMARK   37  A    between atoms: _85  and  _88
REMARK   38  A    between atoms: _88  and  _89
REMARK   39  A    between atoms: _92  and  _94
REMARK   40  A    between atoms: _94  and  _95
REMARK   41  A    between atoms: _94  and  _97
REMARK   42  A    between atoms: _100  and  _102
REMARK   43  A    between atoms: _102  and  _103
REMARK   44  A    between atoms: _102  and  _105
REMARK   45  A    between atoms: _105  and  _106
REMARK   46  A    between atoms: _106  and  _107
REMARK   47  A    between atoms: _107  and  _108
REMARK   48  A    between atoms: _108  and  _109
REMARK   49  A    between atoms: _113  and  _115
REMARK   50  A    between atoms: _115  and  _116
REMARK   51  A    between atoms: _115  and  _118
REMARK   52  A    between atoms: _118  and  _119
REMARK   53  A    between atoms: _119  and  _120
REMARK   54  A    between atoms: _122  and  _124
REMARK   55  A    between atoms: _124  and  _125
REMARK   56  A    between atoms: _124  and  _127
REMARK   57  A    between atoms: _127  and  _128
REMARK   58  A    between atoms: _131  and  _133
REMARK   59  A    between atoms: _133  and  _134
REMARK   60  A    between atoms: _136  and  _138
REMARK   61  A    between atoms: _138  and  _139
REMARK   62  A    between atoms: _141  and  _143
REMARK   63  A    between atoms: _143  and  _144
REMARK   64  A    between atoms: _143  and  _146
REMARK   65  A    between atoms: _146  and  _147
REMARK   66  A    between atoms: _150  and  _152
REMARK   67  A    between atoms: _152  and  _153
REMARK   68  A    between atoms: _155  and  _157
REMARK   69  A    between atoms: _157  and  _158
REMARK   70  A    between atoms: _160  and  _162
REMARK   71  A    between atoms: _162  and  _163
REMARK   72  A    between atoms: _162  and  _165
REMARK   73  A    between atoms: _165  and  _166
REMARK   74  A    between atoms: _172  and  _174
REMARK   75  A    between atoms: _174  and  _175
REMARK   76  A    between atoms: _174  and  _177
REMARK   77  A    between atoms: _180  and  _182
REMARK   78  A    between atoms: _182  and  _183
REMARK   79  A    between atoms: _182  and  _185
REMARK   80  A    between atoms: _188  and  _190
REMARK   81  A    between atoms: _190  and  _191
REMARK   82  A    between atoms: _190  and  _193
REMARK   83  A    between atoms: _193  and  _194
REMARK   84  A    between atoms: _198  and  _199
REMARK   85  A    between atoms: _204  and  _206
REMARK   86  A    between atoms: _206  and  _207
REMARK   87  A    between atoms: _206  and  _209
REMARK   88  A    between atoms: _209  and  _210
REMARK   89  A    between atoms: _214  and  _215
REMARK   90  A    between atoms: _220  and  _222
REMARK   91  A    between atoms: _222  and  _223
REMARK   92  A    between atoms: _222  and  _225
REMARK   93  A    between atoms: _228  and  _230
REMARK   94  A    between atoms: _230  and  _231
REMARK   95  A    between atoms: _230  and  _233
REMARK   96  A    between atoms: _233  and  _234
REMARK   97  A    between atoms: _239  and  _241
REMARK   98  A    between atoms: _241  and  _242
REMARK   99  A    between atoms: _241  and  _244
REMARK  100  A    between atoms: _244  and  _245
REMARK  101  A    between atoms: _248  and  _250
REMARK  102  A    between atoms: _250  and  _251
REMARK  103  A    between atoms: _250  and  _253
REMARK  104  A    between atoms: _253  and  _254
REMARK  105  A    between atoms: _257  and  _259
REMARK  106  A    between atoms: _259  and  _260
REMARK  107  A    between atoms: _262  and  _264
REMARK  108  A    between atoms: _264  and  _265
REMARK  109  A    between atoms: _264  and  _267
REMARK  110  A    between atoms: _267  and  _268
REMARK  111  A    between atoms: _268  and  _269
REMARK  112  A    between atoms: _269  and  _270
REMARK  113  A    between atoms: _279  and  _281
REMARK  114  A    between atoms: _281  and  _282
REMARK  115  A    between atoms: _281  and  _284
REMARK  116  A    between atoms: _284  and  _285
REMARK  117  A    between atoms: _290  and  _292
REMARK  118  A    between atoms: _292  and  _293
REMARK  119  A    between atoms: _292  and  _295
REMARK  120  A    between atoms: _295  and  _296
REMARK  121  A    between atoms: _296  and  _297
REMARK  122  A    between atoms: _297  and  _298
REMARK  123  A    between atoms: _307  and  _309
REMARK  124  A    between atoms: _309  and  _310
REMARK  125  A    between atoms: _309  and  _312
REMARK  126  A    between atoms: _312  and  _313
REMARK  127  A    between atoms: _316  and  _318
REMARK  128  A    between atoms: _318  and  _319
REMARK  129  A    between atoms: _318  and  _321
REMARK  130  A    between atoms: _321  and  _322
REMARK  131  A    between atoms: _325  and  _327
REMARK  132  A    between atoms: _327  and  _328
REMARK  133  A    between atoms: _327  and  _330
REMARK  134  A    between atoms: _330  and  _331
REMARK  135  A    between atoms: _334  and  _336
REMARK  136  A    between atoms: _336  and  _337
REMARK  137  A    between atoms: _336  and  _339
REMARK  138  A    between atoms: _339  and  _340
REMARK  139  A    between atoms: _343  and  _345
REMARK  140  A    between atoms: _345  and  _346
REMARK  141  A    between atoms: _348  and  _350
REMARK  142  A    between atoms: _350  and  _351
REMARK  143  A    between atoms: _354  and  _356
REMARK  144  A    between atoms: _356  and  _357
REMARK  145  A    between atoms: _356  and  _359
REMARK  146  A    between atoms: _359  and  _360
REMARK  147  A    between atoms: _363  and  _365
REMARK  148  A    between atoms: _365  and  _366
REMARK  149  A    between atoms: _365  and  _368
REMARK  150  A    between atoms: _368  and  _369
REMARK  151  A    between atoms: _372  and  _374
REMARK  152  A    between atoms: _374  and  _375
REMARK  153  A    between atoms: _374  and  _377
REMARK  154  A    between atoms: _377  and  _378
REMARK  155  A    between atoms: _381  and  _383
REMARK  156  A    between atoms: _383  and  _384
REMARK  157  A    between atoms: _383  and  _386
REMARK  158  A    between atoms: _389  and  _391
REMARK  159  A    between atoms: _391  and  _392
REMARK  160  A    between atoms: _391  and  _394
REMARK  161  A    between atoms: _394  and  _395
REMARK  162  A    between atoms: _395  and  _396
REMARK  163  A    between atoms: _396  and  _397
REMARK  164  A    between atoms: _397  and  _398
REMARK  165  A    between atoms: _402  and  _404
REMARK  166  A    between atoms: _404  and  _405
REMARK  167  A    between atoms: _404  and  _407
REMARK  168  A    between atoms: _407  and  _408
REMARK  169  A    between atoms: _408  and  _409
REMARK  170  A    between atoms: _411  and  _413
REMARK  171  A    between atoms: _413  and  _414
REMARK  172  A    between atoms: _413  and  _416
REMARK  173  A    between atoms: _416  and  _417
REMARK  174  A    between atoms: _420  and  _422
REMARK  175  A    between atoms: _422  and  _423
REMARK  176  A    between atoms: _425  and  _427
REMARK  177  A    between atoms: _427  and  _428
REMARK  178  A    between atoms: _430  and  _432
REMARK  179  A    between atoms: _432  and  _433
REMARK  180  A    between atoms: _432  and  _435
REMARK  181  A    between atoms: _435  and  _436
REMARK  182  A    between atoms: _439  and  _441
REMARK  183  A    between atoms: _441  and  _442
REMARK  184  A    between atoms: _444  and  _446
REMARK  185  A    between atoms: _446  and  _447
REMARK  186  A    between atoms: _449  and  _451
REMARK  187  A    between atoms: _451  and  _452
REMARK  188  A    between atoms: _451  and  _454
REMARK  189  A    between atoms: _454  and  _455
REMARK  190  A    between atoms: _461  and  _463
REMARK  191  A    between atoms: _463  and  _464
REMARK  192  A    between atoms: _463  and  _466
REMARK  193  A    between atoms: _469  and  _471
REMARK  194  A    between atoms: _471  and  _472
REMARK  195  A    between atoms: _471  and  _474
REMARK  196  A    between atoms: _477  and  _479
REMARK  197  A    between atoms: _479  and  _480
REMARK  198  A    between atoms: _479  and  _482
REMARK  199  A    between atoms: _482  and  _483
REMARK  200  A    between atoms: _487  and  _488
REMARK  201  A    between atoms: _493  and  _495
REMARK  202  A    between atoms: _495  and  _496
REMARK  203  A    between atoms: _495  and  _498
REMARK  204  A    between atoms: _498  and  _499
REMARK  205  A    between atoms: _503  and  _504
REMARK  206  A    between atoms: _509  and  _511
REMARK  207  A    between atoms: _511  and  _512
REMARK  208  A    between atoms: _511  and  _514
REMARK  209  A    between atoms: _517  and  _519
REMARK  210  A    between atoms: _519  and  _520
REMARK  211  A    between atoms: _519  and  _522
REMARK  212  A    between atoms: _522  and  _523
REMARK  213  A    between atoms: _528  and  _530
REMARK  214  A    between atoms: _530  and  _531
REMARK  215  A    between atoms: _530  and  _533
REMARK  216  A    between atoms: _533  and  _534
REMARK  217  A    between atoms: _537  and  _539
REMARK  218  A    between atoms: _539  and  _540
REMARK  219  A    between atoms: _539  and  _542
REMARK  220  A    between atoms: _542  and  _543
REMARK  221  A    between atoms: _546  and  _548
REMARK  222  A    between atoms: _548  and  _549
REMARK  223  A    between atoms: _551  and  _553
REMARK  224  A    between atoms: _553  and  _554
REMARK  225  A    between atoms: _553  and  _556
REMARK  226  A    between atoms: _556  and  _557
REMARK  227  A    between atoms: _557  and  _558
REMARK  228  A    between atoms: _558  and  _559
REMARK                            x       y       z     vdW  Elec       q    Type
REMARK                         _______ _______ _______ _____ _____    ______ ____
ROOT
ATOM      1  CA  LEU A   1      13.292  13.356  27.778  0.00  0.00    +0.133 C 
ENDROOT
BRANCH   1   2
ATOM      2  N   LEU A   1      12.421  14.221  28.545  0.00  0.00    -0.239 NA
ATOM      3  H   LEU A   1      12.338  15.211  28.237  0.00  0.00    +0.142 HD
ENDBRANCH   1   2
BRANCH   1   4
ATOM      4  C   LEU A   1      14.705  13.528  28.249  0.00  0.00    +0.224 C 
ATOM      5  O   LEU A   1      15.118  14.684  28.439  0.00  0.00    -0.287 OA
ENDBRANCH   1   4
BRANCH   1   6
ATOM      6  CB  LEU A   1      13.154  13.649  26.301  0.00  0.00    +0.025 C 
BRANCH   6   7
ATOM      7  CG  LEU A   1      11.766  13.711  25.720  0.00  0.00    +0.002 C 
ATOM      8  CD2 LEU A   1      10.964  12.477  26.031  0.00  0.00    +0.000 C 
ATOM      9  CD1 LEU A   1      11.770  14.016  24.227  0.00  0.00    +0.000 C 
ENDBRANCH   6   7
ENDBRANCH   1   6
TORSDOF 4
REMARK  Name = ../refined-set-2016/3d1y/3d1y_pocket.pdb
REMARK  228 active torsions:
REMARK  status: ('A' for Active; 'I' for Inactive)
REMARK    1  A    between atoms: _1  and  _3
REMARK    2  A    between atoms: _3  and  _4
REMARK    3  A    between atoms: _3  and  _6
REMARK    4  A    between atoms: _6  and  _7
REMARK    5  A    between atoms: _7  and  _8
REMARK    6  A    between atoms: _8  and  _9
REMARK    7  A    between atoms: _18  and  _20
REMARK    8  A    between atoms: _20  and  _21
REMARK    9  A    between atoms: _20  and  _23
REMARK   10  A    between atoms: _23  and  _24
REMARK   11  A    between atoms: _27  and  _29
REMARK   12  A    between atoms: _29  and  _30
REMARK   13  A    between atoms: _29  and  _32
REMARK   14  A    between atoms: _32  and  _33
REMARK   15  A    between atoms: _36  and  _38
REMARK   16  A    between atoms: _38  and  _39
REMARK   17  A    between atoms: _38  and  _41
REMARK   18  A    between atoms: _41  and  _42
REMARK   19  A    between atoms: _45  and  _47
REMARK   20  A    between atoms: _47  and  _48
REMARK   21  A    between atoms: _47  and  _50
REMARK   22  A    between atoms: _50  and  _51
REMARK   23  A    between atoms: _54  and  _56
REMARK   24  A    between atoms: _56  and  _57
REMARK   25  A    between atoms: _59  and  _61
REMARK   26  A    between atoms: _61  and  _62
REMARK   27  A    between atoms: _65  and  _67
REMARK   28  A    between atoms: _67  and  _68
REMARK   29  A    between atoms: _67  and  _70
REMARK   30  A    between atoms: _70  and  _71
REMARK   31  A    between atoms: _74  and  _76
REMARK   32  A    between atoms: _76  and  _77
REMARK   33  A    between atoms: _76  and  _79
REMARK   34  A    between atoms: _79  and  _80
REMARK   35  A    between atoms: _83  and  _85
REMARK   36  A    between atoms: _85  and  _86
REMARK   37  A    between atoms: _85  and  _88
REMARK   38  A    between atoms: _88  and  _89
REMARK   39  A    between atoms: _92  and  _94
REMARK   40  A    between atoms: _94  and  _95
REMARK   41  A    between atoms: _94  and  _97
REMARK   42  A    between atoms: _100  and  _102
REMARK   43  A    between atoms: _102  and  _103
REMARK   44  A    between atoms: _102  and  _105
REMARK   45  A    between atoms: _105  and  _106
REMARK   46  A    between atoms: _106  and  _107
REMARK   47  A    between atoms: _107  and  _108
REMARK   48  A    between atoms: _108  and  _109
REMARK   49  A    between atoms: _113  and  _115
REMARK   50  A    between atoms: _115  and  _116
REMARK   51  A    between atoms: _115  and  _118
REMARK   52  A    between atoms: _118  and  _119
REMARK   53  A    between atoms: _119  and  _120
REMARK   54  A    between atoms: _122  and  _124
REMARK   55  A    between atoms: _124  and  _125
REMARK   56  A    between atoms: _124  and  _127
REMARK   57  A    between atoms: _127  and  _128
REMARK   58  A    between atoms: _131  and  _133
REMARK   59  A    between atoms: _133  and  _134
REMARK   60  A    between atoms: _136  and  _138
REMARK   61  A    between atoms: _138  and  _139
REMARK   62  A    between atoms: _141  and  _143
REMARK   63  A    between atoms: _143  and  _144
REMARK   64  A    between atoms: _143  and  _146
REMARK   65  A    between atoms: _146  and  _147
REMARK   66  A    between atoms: _150  and  _152
REMARK   67  A    between atoms: _152  and  _153
REMARK   68  A    between atoms: _155  and  _157
REMARK   69  A    between atoms: _157  and  _158
REMARK   70  A    between atoms: _160  and  _162
REMARK   71  A    between atoms: _162  and  _163
REMARK   72  A    between atoms: _162  and  _165
REMARK   73  A    between atoms: _165  and  _166
REMARK   74  A    between atoms: _172  and  _174
REMARK   75  A    between atoms: _174  and  _175
REMARK   76  A    between atoms: _174  and  _177
REMARK   77  A    between atoms: _180  and  _182
REMARK   78  A    between atoms: _182  and  _183
REMARK   79  A    between atoms: _182  and  _185
REMARK   80  A    between atoms: _188  and  _190
REMARK   81  A    between atoms: _190  and  _191
REMARK   82  A    between atoms: _190  and  _193
REMARK   83  A    between atoms: _193  and  _194
REMARK   84  A    between atoms: _198  and  _199
REMARK   85  A    between atoms: _204  and  _206
REMARK   86  A    between atoms: _206  and  _207
REMARK   87  A    between atoms: _206  and  _209
REMARK   88  A    between atoms: _209  and  _210
REMARK   89  A    between atoms: _214  and  _215
REMARK   90  A    between atoms: _220  and  _222
REMARK   91  A    between atoms: _222  and  _223
REMARK   92  A    between atoms: _222  and  _225
REMARK   93  A    between atoms: _228  and  _230
REMARK   94  A    between atoms: _230  and  _231
REMARK   95  A    between atoms: _230  and  _233
REMARK   96  A    between atoms: _233  and  _234
REMARK   97  A    between atoms: _239  and  _241
REMARK   98  A    between atoms: _241  and  _242
REMARK   99  A    between atoms: _241  and  _244
REMARK  100  A    between atoms: _244  and  _245
REMARK  101  A    between atoms: _248  and  _250
REMARK  102  A    between atoms: _250  and  _251
REMARK  103  A    between atoms: _250  and  _253
REMARK  104  A    between atoms: _253  and  _254
REMARK  105  A    between atoms: _257  and  _259
REMARK  106  A    between atoms: _259  and  _260
REMARK  107  A    between atoms: _262  and  _264
REMARK  108  A    between atoms: _264  and  _265
REMARK  109  A    between atoms: _264  and  _267
REMARK  110  A    between atoms: _267  and  _268
REMARK  111  A    between atoms: _268  and  _269
REMARK  112  A    between atoms: _269  and  _270
REMARK  113  A    between atoms: _279  and  _281
REMARK  114  A    between atoms: _281  and  _282
REMARK  115  A    between atoms: _281  and  _284
REMARK  116  A    between atoms: _284  and  _285
REMARK  117  A    between atoms: _290  and  _292
REMARK  118  A    between atoms: _292  and  _293
REMARK  119  A    between atoms: _292  and  _295
REMARK  120  A    between atoms: _295  and  _296
REMARK  121  A    between atoms: _296  and  _297
REMARK  122  A    between atoms: _297  and  _298
REMARK  123  A    between atoms: _307  and  _309
REMARK  124  A    between atoms: _309  and  _310
REMARK  125  A    between atoms: _309  and  _312
REMARK  126  A    between atoms: _312  and  _313
REMARK  127  A    between atoms: _316  and  _318
REMARK  128  A    between atoms: _318  and  _319
REMARK  129  A    between atoms: _318  and  _321
REMARK  130  A    between atoms: _321  and  _322
REMARK  131  A    between atoms: _325  and  _327
REMARK  132  A    between atoms: _327  and  _328
REMARK  133  A    between atoms: _327  and  _330
REMARK  134  A    between atoms: _330  and  _331
REMARK  135  A    between atoms: _334  and  _336
REMARK  136  A    between atoms: _336  and  _337
REMARK  137  A    between atoms: _336  and  _339
REMARK  138  A    between atoms: _339  and  _340
REMARK  139  A    between atoms: _343  and  _345
REMARK  140  A    between atoms: _345  and  _346
REMARK  141  A    between atoms: _348  and  _350
REMARK  142  A    between atoms: _350  and  _351
REMARK  143  A    between atoms: _354  and  _356
REMARK  144  A    between atoms: _356  and  _357
REMARK  145  A    between atoms: _356  and  _359
REMARK  146  A    between atoms: _359  and  _360
REMARK  147  A    between atoms: _363  and  _365
REMARK  148  A    between atoms: _365  and  _366
REMARK  149  A    between atoms: _365  and  _368
REMARK  150  A    between atoms: _368  and  _369
REMARK  151  A    between atoms: _372  and  _374
REMARK  152  A    between atoms: _374  and  _375
REMARK  153  A    between atoms: _374  and  _377
REMARK  154  A    between atoms: _377  and  _378
REMARK  155  A    between atoms: _381  and  _383
REMARK  156  A    between atoms: _383  and  _384
REMARK  157  A    between atoms: _383  and  _386
REMARK  158  A    between atoms: _389  and  _391
REMARK  159  A    between atoms: _391  and  _392
REMARK  160  A    between atoms: _391  and  _394
REMARK  161  A    between atoms: _394  and  _395
REMARK  162  A    between atoms: _395  and  _396
REMARK  163  A    between atoms: _396  and  _397
REMARK  164  A    between atoms: _397  and  _398
REMARK  165  A    between atoms: _402  and  _404
REMARK  166  A    between atoms: _404  and  _405
REMARK  167  A    between atoms: _404  and  _407
REMARK  168  A    between atoms: _407  and  _408
REMARK  169  A    between atoms: _408  and  _409
REMARK  170  A    between atoms: _411  and  _413
REMARK  171  A    between atoms: _413  and  _414
REMARK  172  A    between atoms: _413  and  _416
REMARK  173  A    between atoms: _416  and  _417
REMARK  174  A    between atoms: _420  and  _422
REMARK  175  A    between atoms: _422  and  _423
REMARK  176  A    between atoms: _425  and  _427
REMARK  177  A    between atoms: _427  and  _428
REMARK  178  A    between atoms: _430  and  _432
REMARK  179  A    between atoms: _432  and  _433
REMARK  180  A    between atoms: _432  and  _435
REMARK  181  A    between atoms: _435  and  _436
REMARK  182  A    between atoms: _439  and  _441
REMARK  183  A    between atoms: _441  and  _442
REMARK  184  A    between atoms: _444  and  _446
REMARK  185  A    between atoms: _446  and  _447
REMARK  186  A    between atoms: _449  and  _451
REMARK  187  A    between atoms: _451  and  _452
REMARK  188  A    between atoms: _451  and  _454
REMARK  189  A    between atoms: _454  and  _455
REMARK  190  A    between atoms: _461  and  _463
REMARK  191  A    between atoms: _463  and  _464
REMARK  192  A    between atoms: _463  and  _466
REMARK  193  A    between atoms: _469  and  _471
REMARK  194  A    between atoms: _471  and  _472
REMARK  195  A    between atoms: _471  and  _474
REMARK  196  A    between atoms: _477  and  _479
REMARK  197  A    between atoms: _479  and  _480
REMARK  198  A    between atoms: _479  and  _482
REMARK  199  A    between atoms: _482  and  _483
REMARK  200  A    between atoms: _487  and  _488
REMARK  201  A    between atoms: _493  and  _495
REMARK  202  A    between atoms: _495  and  _496
REMARK  203  A    between atoms: _495  and  _498
REMARK  204  A    between atoms: _498  and  _499
REMARK  205  A    between atoms: _503  and  _504
REMARK  206  A    between atoms: _509  and  _511
REMARK  207  A    between atoms: _511  and  _512
REMARK  208  A    between atoms: _511  and  _514
REMARK  209  A    between atoms: _517  and  _519
REMARK  210  A    between atoms: _519  and  _520
REMARK  211  A    between atoms: _519  and  _522
REMARK  212  A    between atoms: _522  and  _523
REMARK  213  A    between atoms: _528  and  _530
REMARK  214  A    between atoms: _530  and  _531
REMARK  215  A    between atoms: _530  and  _533
REMARK  216  A    between atoms: _533  and  _534
REMARK  217  A    between atoms: _537  and  _539
REMARK  218  A    between atoms: _539  and  _540
REMARK  219  A    between atoms: _539  and  _542
REMARK  220  A    between atoms: _542  and  _543
REMARK  221  A    between atoms: _546  and  _548
REMARK  222  A    between atoms: _548  and  _549
REMARK  223  A    between atoms: _551  and  _553
REMARK  224  A    between atoms: _553  and  _554
REMARK  225  A    between atoms: _553  and  _556
REMARK  226  A    between atoms: _556  and  _557
REMARK  227  A    between atoms: _557  and  _558
REMARK  228  A    between atoms: _558  and  _559
REMARK                            x       y       z     vdW  Elec       q    Type
REMARK                         _______ _______ _______ _____ _____    ______ ____
ROOT
ATOM      1  C   ASN A   5      17.792  22.445  27.856  0.00  0.00    +0.241 C 
ATOM      2  O   ASN A   5      17.961  23.690  27.871  0.00  0.00    -0.273 OA
ATOM      3  N   ILE A   6      16.763  21.811  27.310  0.00  0.00    -0.297 N 
ATOM      4  H   ILE A   6      16.688  20.781  27.432  0.00  0.00    +0.150 HD
ENDROOT
BRANCH   3   5
ATOM      5  CA  ILE A   6      15.736  22.503  26.547  0.00  0.00    +0.149 C 
BRANCH   5   6
ATOM      6  C   ILE A   6      14.359  22.320  27.148  0.00  0.00    +0.241 C 
ATOM      7  N   ILE A   7      13.676  23.453  27.383  0.00  0.00    -0.297 N 
ATOM      8  H   ILE A   7      14.146  24.367  27.223  0.00  0.00    +0.150 HD
ATOM      9  O   ILE A   6      13.903  21.190  27.367  0.00  0.00    -0.273 OA
BRANCH   7  10
ATOM     10  CA  ILE A   7      12.308  23.442  27.851  0.00  0.00    +0.149 C 
BRANCH  10  11
ATOM     11  C   ILE A   7      11.439  23.707  26.638  0.00  0.00    +0.241 C 
ATOM     12  N   GLY A   8      10.687  22.703  26.208  0.00  0.00    -0.295 N 
ATOM     13  H   GLY A   8      10.713  21.810  26.740  0.00  0.00    +0.150 HD
ATOM     14  O   ILE A   7      11.441  24.806  26.078  0.00  0.00    -0.273 OA
BRANCH  12  15
ATOM     15  CA  GLY A   8       9.843  22.776  25.057  0.00  0.00    +0.176 C 
BRANCH  15  16
ATOM     16  C   GLY A   8       8.407  23.062  25.375  0.00  0.00    +0.243 C 
ATOM     17  O   GLY A   8       8.013  23.310  26.518  0.00  0.00    -0.273 OA
ATOM     18  N   ARG A   9       7.581  23.049  24.334  0.00  0.00    -0.298 N 
ATOM     19  H   ARG A   9       7.908  22.692  23.414  0.00  0.00    +0.150 HD
BRANCH  18  20
ATOM     20  CA  ARG A   9       6.227  23.532  24.483  0.00  0.00    +0.137 C 
BRANCH  20  21
ATOM     21  C   ARG A   9       5.389  22.720  25.447  0.00  0.00    +0.227 C 
ATOM     22  O   ARG A   9       4.463  23.272  26.021  0.00  0.00    -0.286 OA
ENDBRANCH  20  21
BRANCH  20  23
ATOM     23  CB  ARG A   9       5.495  23.590  23.121  0.00  0.00    +0.031 C 
BRANCH  23  24
ATOM     24  CG  ARG A   9       6.144  24.652  22.189  0.00  0.00    +0.045 C 
BRANCH  24  25
ATOM     25  CD  ARG A   9       5.303  24.821  20.895  0.00  0.00    +0.174 C 
BRANCH  25  26
ATOM     26  NE  ARG A   9       5.305  23.600  20.088  0.00  0.00    -0.265 N 
ATOM     27  CZ  ARG A   9       4.333  22.676  20.083  0.00  0.00    +0.342 C 
ATOM     28  NH2 ARG A   9       3.198  22.803  20.760  0.00  0.00    -0.292 N 
ATOM     29 HH21 ARG A   9       3.027  23.654  21.333  0.00  0.00    +0.255 HD
ATOM     30 HH22 ARG A   9       2.480  22.052  20.717  0.00  0.00    +0.255 HD
ATOM     31  NH1 ARG A   9       4.538  21.550  19.356  0.00  0.00    -0.292 N 
ATOM     32 HH11 ARG A   9       3.808  20.810  19.327  0.00  0.00    +0.255 HD
ATOM     33 HH12 ARG A   9       5.425  21.427  18.828  0.00  0.00    +0.255 HD
ATOM     34  HE  ARG A   9       6.125  23.436  19.470  0.00  0.00    +0.259 HD
ENDBRANCH  25  26
ENDBRANCH  24  25
ENDBRANCH  23  24
ENDBRANCH  20  23
ENDBRANCH  18  20
ENDBRANCH  15  16
ENDBRANCH  12  15
ENDBRANCH  10  11
BRANCH  10  35
ATOM     35  CB  ILE A   7      12.032  24.482  28.961  0.00  0.00    +0.027 C 
ATOM     36  CG2 ILE A   7      10.607  24.393  29.424  0.00  0.00    +0.002 C 
BRANCH  35  37
ATOM     37  CG1 ILE A   7      13.029  24.371  30.106  0.00  0.00    +0.002 C 
ATOM     38  CD1 ILE A   7      13.073  22.994  30.764  0.00  0.00    +0.000 C 
ENDBRANCH  35  37
ENDBRANCH  10  35
ENDBRANCH   7  10
ENDBRANCH   5   6
BRANCH   5  39
ATOM     39  CB  ILE A   6      15.790  21.988  25.078  0.00  0.00    +0.027 C 
ATOM     40  CG2 ILE A   6      14.582  22.450  24.296  0.00  0.00    +0.002 C 
BRANCH  39  41
ATOM     41  CG1 ILE A   6      17.147  22.342  24.413  0.00  0.00    +0.002 C 
ATOM     42  CD1 ILE A   6      17.588  21.396  23.293  0.00  0.00    +0.000 C 
ENDBRANCH  39  41
ENDBRANCH   5  39
ENDBRANCH   3   5
BRANCH   1  43
ATOM     43  CA  ASN A   5      18.854  21.578  28.492  0.00  0.00    +0.158 C 
BRANCH  43  45
ATOM     44  C   VAL A   4      20.568  21.760  26.754  0.00  0.00    +0.241 C 
ATOM     45  N   ASN A   5      20.187  22.011  28.011  0.00  0.00    -0.297 N 
ATOM     46  H   ASN A   5      20.831  22.513  28.655  0.00  0.00    +0.150 HD
ATOM     47  O   VAL A   4      19.905  21.041  25.996  0.00  0.00    -0.273 OA
BRANCH  44  48
ATOM     48  CA  VAL A   4      21.872  22.417  26.250  0.00  0.00    +0.149 C 
BRANCH  48  51
ATOM     49  C   PRO A   3      23.959  21.400  25.671  0.00  0.00    +0.241 C 
ATOM     50  O   PRO A   3      24.554  22.141  26.444  0.00  0.00    -0.273 OA
ATOM     51  N   VAL A   4      22.632  21.470  25.512  0.00  0.00    -0.297 N 
ATOM     52  H   VAL A   4      22.155  20.829  24.846  0.00  0.00    +0.150 HD
BRANCH  49  56
ATOM     53  C   THR A   2      23.508  18.402  25.003  0.00  0.00    +0.246 C 
ATOM     54  O   THR A   2      23.970  18.284  26.141  0.00  0.00    -0.273 OA
ATOM     55  N   PRO A   3      23.892  19.408  24.235  0.00  0.00    -0.272 N 
ATOM     56  CA  PRO A   3      24.752  20.442  24.815  0.00  0.00    +0.152 C 
ATOM     57  CB  PRO A   3      25.288  21.169  23.587  0.00  0.00    +0.031 C 
ATOM     58  CG  PRO A   3      24.204  20.983  22.567  0.00  0.00    +0.024 C 
ATOM     59  CD  PRO A   3      23.589  19.640  22.819  0.00  0.00    +0.094 C 
BRANCH  53  60
ATOM     60  CA  THR A   2      22.496  17.397  24.479  0.00  0.00    +0.176 C 
BRANCH  60  62
ATOM     61  C   PRO A   1      22.674  14.968  24.459  0.00  0.00    +0.239 C 
ATOM     62  N   THR A   2      22.799  16.124  25.068  0.00  0.00    -0.295 N 
ATOM     63  H   THR A   2      23.143  16.117  26.049  0.00  0.00    +0.150 HD
ATOM     64  O   PRO A   1      22.383  15.061  23.284  0.00  0.00    -0.274 OA
BRANCH  61  66
ATOM     65  N   PRO A   1      21.908  12.839  25.610  0.00  0.00    -0.210 NA
ATOM     66  CA  PRO A   1      23.008  13.749  25.283  0.00  0.00    +0.149 C 
ATOM     67  CB  PRO A   1      23.964  12.931  24.397  0.00  0.00    +0.028 C 
ATOM     68  CG  PRO A   1      23.326  11.622  24.188  0.00  0.00    +0.021 C 
ATOM     69  CD  PRO A   1      22.164  11.482  25.097  0.00  0.00    +0.089 C 
ENDBRANCH  61  66
ENDBRANCH  60  62
BRANCH  60  70
ATOM     70  CB  THR A   2      21.025  17.823  24.789  0.00  0.00    +0.137 C 
ATOM     71  CG2 THR A   2      20.670  17.798  26.265  0.00  0.00    +0.034 C 
BRANCH  70  72
ATOM     72  OG1 THR A   2      20.891  19.156  24.343  0.00  0.00    -0.382 OA
ATOM     73  HG1 THR A   2      19.969  19.471  24.520  0.00  0.00    +0.210 HD
ENDBRANCH  70  72
ENDBRANCH  60  70
ENDBRANCH  53  60
ENDBRANCH  49  56
ENDBRANCH  48  51
BRANCH  48  74
ATOM     74  CB  VAL A   4      21.528  23.618  25.328  0.00  0.00    +0.027 C 
ATOM     75  CG2 VAL A   4      20.651  24.684  25.994  0.00  0.00    +0.002 C 
ATOM     76  CG1 VAL A   4      22.812  24.359  24.886  0.00  0.00    +0.002 C 
ENDBRANCH  48  74
ENDBRANCH  44  48
ENDBRANCH  43  45
BRANCH  43  77
ATOM     77  CB  ASN A   5      18.751  21.694  30.008  0.00  0.00    +0.114 C 
BRANCH  77  78
ATOM     78  CG  ASN A   5      19.818  20.829  30.684  0.00  0.00    +0.222 C 
ATOM     79  ND2 ASN A   5      20.484  21.386  31.657  0.00  0.00    -0.329 N 
ATOM     80 HD21 ASN A   5      21.236  20.856  32.143  0.00  0.00    +0.145 HD
ATOM     81 HD22 ASN A   5      20.263  22.360  31.947  0.00  0.00    +0.145 HD
ATOM     82  OD1 ASN A   5      20.040  19.681  30.303  0.00  0.00    -0.275 OA
ENDBRANCH  77  78
ENDBRANCH  43  77
ENDBRANCH   1  43
TORSDOF 29
REMARK  Name = ../refined-set-2016/3d1y/3d1y_pocket.pdb
REMARK  228 active torsions:
REMARK  status: ('A' for Active; 'I' for Inactive)
REMARK    1  A    between atoms: _1  and  _3
REMARK    2  A    between atoms: _3  and  _4
REMARK    3  A    between atoms: _3  and  _6
REMARK    4  A    between atoms: _6  and  _7
REMARK    5  A    between atoms: _7  and  _8
REMARK    6  A    between atoms: _8  and  _9
REMARK    7  A    between atoms: _18  and  _20
REMARK    8  A    between atoms: _20  and  _21
REMARK    9  A    between atoms: _20  and  _23
REMARK   10  A    between atoms: _23  and  _24
REMARK   11  A    between atoms: _27  and  _29
REMARK   12  A    between atoms: _29  and  _30
REMARK   13  A    between atoms: _29  and  _32
REMARK   14  A    between atoms: _32  and  _33
REMARK   15  A    between atoms: _36  and  _38
REMARK   16  A    between atoms: _38  and  _39
REMARK   17  A    between atoms: _38  and  _41
REMARK   18  A    between atoms: _41  and  _42
REMARK   19  A    between atoms: _45  and  _47
REMARK   20  A    between atoms: _47  and  _48
REMARK   21  A    between atoms: _47  and  _50
REMARK   22  A    between atoms: _50  and  _51
REMARK   23  A    between atoms: _54  and  _56
REMARK   24  A    between atoms: _56  and  _57
REMARK   25  A    between atoms: _59  and  _61
REMARK   26  A    between atoms: _61  and  _62
REMARK   27  A    between atoms: _65  and  _67
REMARK   28  A    between atoms: _67  and  _68
REMARK   29  A    between atoms: _67  and  _70
REMARK   30  A    between atoms: _70  and  _71
REMARK   31  A    between atoms: _74  and  _76
REMARK   32  A    between atoms: _76  and  _77
REMARK   33  A    between atoms: _76  and  _79
REMARK   34  A    between atoms: _79  and  _80
REMARK   35  A    between atoms: _83  and  _85
REMARK   36  A    between atoms: _85  and  _86
REMARK   37  A    between atoms: _85  and  _88
REMARK   38  A    between atoms: _88  and  _89
REMARK   39  A    between atoms: _92  and  _94
REMARK   40  A    between atoms: _94  and  _95
REMARK   41  A    between atoms: _94  and  _97
REMARK   42  A    between atoms: _100  and  _102
REMARK   43  A    between atoms: _102  and  _103
REMARK   44  A    between atoms: _102  and  _105
REMARK   45  A    between atoms: _105  and  _106
REMARK   46  A    between atoms: _106  and  _107
REMARK   47  A    between atoms: _107  and  _108
REMARK   48  A    between atoms: _108  and  _109
REMARK   49  A    between atoms: _113  and  _115
REMARK   50  A    between atoms: _115  and  _116
REMARK   51  A    between atoms: _115  and  _118
REMARK   52  A    between atoms: _118  and  _119
REMARK   53  A    between atoms: _119  and  _120
REMARK   54  A    between atoms: _122  and  _124
REMARK   55  A    between atoms: _124  and  _125
REMARK   56  A    between atoms: _124  and  _127
REMARK   57  A    between atoms: _127  and  _128
REMARK   58  A    between atoms: _131  and  _133
REMARK   59  A    between atoms: _133  and  _134
REMARK   60  A    between atoms: _136  and  _138
REMARK   61  A    between atoms: _138  and  _139
REMARK   62  A    between atoms: _141  and  _143
REMARK   63  A    between atoms: _143  and  _144
REMARK   64  A    between atoms: _143  and  _146
REMARK   65  A    between atoms: _146  and  _147
REMARK   66  A    between atoms: _150  and  _152
REMARK   67  A    between atoms: _152  and  _153
REMARK   68  A    between atoms: _155  and  _157
REMARK   69  A    between atoms: _157  and  _158
REMARK   70  A    between atoms: _160  and  _162
REMARK   71  A    between atoms: _162  and  _163
REMARK   72  A    between atoms: _162  and  _165
REMARK   73  A    between atoms: _165  and  _166
REMARK   74  A    between atoms: _172  and  _174
REMARK   75  A    between atoms: _174  and  _175
REMARK   76  A    between atoms: _174  and  _177
REMARK   77  A    between atoms: _180  and  _182
REMARK   78  A    between atoms: _182  and  _183
REMARK   79  A    between atoms: _182  and  _185
REMARK   80  A    between atoms: _188  and  _190
REMARK   81  A    between atoms: _190  and  _191
REMARK   82  A    between atoms: _190  and  _193
REMARK   83  A    between atoms: _193  and  _194
REMARK   84  A    between atoms: _198  and  _199
REMARK   85  A    between atoms: _204  and  _206
REMARK   86  A    between atoms: _206  and  _207
REMARK   87  A    between atoms: _206  and  _209
REMARK   88  A    between atoms: _209  and  _210
REMARK   89  A    between atoms: _214  and  _215
REMARK   90  A    between atoms: _220  and  _222
REMARK   91  A    between atoms: _222  and  _223
REMARK   92  A    between atoms: _222  and  _225
REMARK   93  A    between atoms: _228  and  _230
REMARK   94  A    between atoms: _230  and  _231
REMARK   95  A    between atoms: _230  and  _233
REMARK   96  A    between atoms: _233  and  _234
REMARK   97  A    between atoms: _239  and  _241
REMARK   98  A    between atoms: _241  and  _242
REMARK   99  A    between atoms: _241  and  _244
REMARK  100  A    between atoms: _244  and  _245
REMARK  101  A    between atoms: _248  and  _250
REMARK  102  A    between atoms: _250  and  _251
REMARK  103  A    between atoms: _250  and  _253
REMARK  104  A    between atoms: _253  and  _254
REMARK  105  A    between atoms: _257  and  _259
REMARK  106  A    between atoms: _259  and  _260
REMARK  107  A    between atoms: _262  and  _264
REMARK  108  A    between atoms: _264  and  _265
REMARK  109  A    between atoms: _264  and  _267
REMARK  110  A    between atoms: _267  and  _268
REMARK  111  A    between atoms: _268  and  _269
REMARK  112  A    between atoms: _269  and  _270
REMARK  113  A    between atoms: _279  and  _281
REMARK  114  A    between atoms: _281  and  _282
REMARK  115  A    between atoms: _281  and  _284
REMARK  116  A    between atoms: _284  and  _285
REMARK  117  A    between atoms: _290  and  _292
REMARK  118  A    between atoms: _292  and  _293
REMARK  119  A    between atoms: _292  and  _295
REMARK  120  A    between atoms: _295  and  _296
REMARK  121  A    between atoms: _296  and  _297
REMARK  122  A    between atoms: _297  and  _298
REMARK  123  A    between atoms: _307  and  _309
REMARK  124  A    between atoms: _309  and  _310
REMARK  125  A    between atoms: _309  and  _312
REMARK  126  A    between atoms: _312  and  _313
REMARK  127  A    between atoms: _316  and  _318
REMARK  128  A    between atoms: _318  and  _319
REMARK  129  A    between atoms: _318  and  _321
REMARK  130  A    between atoms: _321  and  _322
REMARK  131  A    between atoms: _325  and  _327
REMARK  132  A    between atoms: _327  and  _328
REMARK  133  A    between atoms: _327  and  _330
REMARK  134  A    between atoms: _330  and  _331
REMARK  135  A    between atoms: _334  and  _336
REMARK  136  A    between atoms: _336  and  _337
REMARK  137  A    between atoms: _336  and  _339
REMARK  138  A    between atoms: _339  and  _340
REMARK  139  A    between atoms: _343  and  _345
REMARK  140  A    between atoms: _345  and  _346
REMARK  141  A    between atoms: _348  and  _350
REMARK  142  A    between atoms: _350  and  _351
REMARK  143  A    between atoms: _354  and  _356
REMARK  144  A    between atoms: _356  and  _357
REMARK  145  A    between atoms: _356  and  _359
REMARK  146  A    between atoms: _359  and  _360
REMARK  147  A    between atoms: _363  and  _365
REMARK  148  A    between atoms: _365  and  _366
REMARK  149  A    between atoms: _365  and  _368
REMARK  150  A    between atoms: _368  and  _369
REMARK  151  A    between atoms: _372  and  _374
REMARK  152  A    between atoms: _374  and  _375
REMARK  153  A    between atoms: _374  and  _377
REMARK  154  A    between atoms: _377  and  _378
REMARK  155  A    between atoms: _381  and  _383
REMARK  156  A    between atoms: _383  and  _384
REMARK  157  A    between atoms: _383  and  _386
REMARK  158  A    between atoms: _389  and  _391
REMARK  159  A    between atoms: _391  and  _392
REMARK  160  A    between atoms: _391  and  _394
REMARK  161  A    between atoms: _394  and  _395
REMARK  162  A    between atoms: _395  and  _396
REMARK  163  A    between atoms: _396  and  _397
REMARK  164  A    between atoms: _397  and  _398
REMARK  165  A    between atoms: _402  and  _404
REMARK  166  A    between atoms: _404  and  _405
REMARK  167  A    between atoms: _404  and  _407
REMARK  168  A    between atoms: _407  and  _408
REMARK  169  A    between atoms: _408  and  _409
REMARK  170  A    between atoms: _411  and  _413
REMARK  171  A    between atoms: _413  and  _414
REMARK  172  A    between atoms: _413  and  _416
REMARK  173  A    between atoms: _416  and  _417
REMARK  174  A    between atoms: _420  and  _422
REMARK  175  A    between atoms: _422  and  _423
REMARK  176  A    between atoms: _425  and  _427
REMARK  177  A    between atoms: _427  and  _428
REMARK  178  A    between atoms: _430  and  _432
REMARK  179  A    between atoms: _432  and  _433
REMARK  180  A    between atoms: _432  and  _435
REMARK  181  A    between atoms: _435  and  _436
REMARK  182  A    between atoms: _439  and  _441
REMARK  183  A    between atoms: _441  and  _442
REMARK  184  A    between atoms: _444  and  _446
REMARK  185  A    between atoms: _446  and  _447
REMARK  186  A    between atoms: _449  and  _451
REMARK  187  A    between atoms: _451  and  _452
REMARK  188  A    between atoms: _451  and  _454
REMARK  189  A    between atoms: _454  and  _455
REMARK  190  A    between atoms: _461  and  _463
REMARK  191  A    between atoms: _463  and  _464
REMARK  192  A    between atoms: _463  and  _466
REMARK  193  A    between atoms: _469  and  _471
REMARK  194  A    between atoms: _471  and  _472
REMARK  195  A    between atoms: _471  and  _474
REMARK  196  A    between atoms: _477  and  _479
REMARK  197  A    between atoms: _479  and  _480
REMARK  198  A    between atoms: _479  and  _482
REMARK  199  A    between atoms: _482  and  _483
REMARK  200  A    between atoms: _487  and  _488
REMARK  201  A    between atoms: _493  and  _495
REMARK  202  A    between atoms: _495  and  _496
REMARK  203  A    between atoms: _495  and  _498
REMARK  204  A    between atoms: _498  and  _499
REMARK  205  A    between atoms: _503  and  _504
REMARK  206  A    between atoms: _509  and  _511
REMARK  207  A    between atoms: _511  and  _512
REMARK  208  A    between atoms: _511  and  _514
REMARK  209  A    between atoms: _517  and  _519
REMARK  210  A    between atoms: _519  and  _520
REMARK  211  A    between atoms: _519  and  _522
REMARK  212  A    between atoms: _522  and  _523
REMARK  213  A    between atoms: _528  and  _530
REMARK  214  A    between atoms: _530  and  _531
REMARK  215  A    between atoms: _530  and  _533
REMARK  216  A    between atoms: _533  and  _534
REMARK  217  A    between atoms: _537  and  _539
REMARK  218  A    between atoms: _539  and  _540
REMARK  219  A    between atoms: _539  and  _542
REMARK  220  A    between atoms: _542  and  _543
REMARK  221  A    between atoms: _546  and  _548
REMARK  222  A    between atoms: _548  and  _549
REMARK  223  A    between atoms: _551  and  _553
REMARK  224  A    between atoms: _553  and  _554
REMARK  225  A    between atoms: _553  and  _556
REMARK  226  A    between atoms: _556  and  _557
REMARK  227  A    between atoms: _557  and  _558
REMARK  228  A    between atoms: _558  and  _559
REMARK                            x       y       z     vdW  Elec       q    Type
REMARK                         _______ _______ _______ _____ _____    ______ ____
ROOT
ATOM      1  O   HOH     1      22.435  15.392  19.849  0.00  0.00    +0.000 OA
ENDROOT
TORSDOF 0
REMARK  Name = ../refined-set-2016/3d1y/3d1y_pocket.pdb
REMARK  228 active torsions:
REMARK  status: ('A' for Active; 'I' for Inactive)
REMARK    1  A    between atoms: _1  and  _3
REMARK    2  A    between atoms: _3  and  _4
REMARK    3  A    between atoms: _3  and  _6
REMARK    4  A    between atoms: _6  and  _7
REMARK    5  A    between atoms: _7  and  _8
REMARK    6  A    between atoms: _8  and  _9
REMARK    7  A    between atoms: _18  and  _20
REMARK    8  A    between atoms: _20  and  _21
REMARK    9  A    between atoms: _20  and  _23
REMARK   10  A    between atoms: _23  and  _24
REMARK   11  A    between atoms: _27  and  _29
REMARK   12  A    between atoms: _29  and  _30
REMARK   13  A    between atoms: _29  and  _32
REMARK   14  A    between atoms: _32  and  _33
REMARK   15  A    between atoms: _36  and  _38
REMARK   16  A    between atoms: _38  and  _39
REMARK   17  A    between atoms: _38  and  _41
REMARK   18  A    between atoms: _41  and  _42
REMARK   19  A    between atoms: _45  and  _47
REMARK   20  A    between atoms: _47  and  _48
REMARK   21  A    between atoms: _47  and  _50
REMARK   22  A    between atoms: _50  and  _51
REMARK   23  A    between atoms: _54  and  _56
REMARK   24  A    between atoms: _56  and  _57
REMARK   25  A    between atoms: _59  and  _61
REMARK   26  A    between atoms: _61  and  _62
REMARK   27  A    between atoms: _65  and  _67
REMARK   28  A    between atoms: _67  and  _68
REMARK   29  A    between atoms: _67  and  _70
REMARK   30  A    between atoms: _70  and  _71
REMARK   31  A    between atoms: _74  and  _76
REMARK   32  A    between atoms: _76  and  _77
REMARK   33  A    between atoms: _76  and  _79
REMARK   34  A    between atoms: _79  and  _80
REMARK   35  A    between atoms: _83  and  _85
REMARK   36  A    between atoms: _85  and  _86
REMARK   37  A    between atoms: _85  and  _88
REMARK   38  A    between atoms: _88  and  _89
REMARK   39  A    between atoms: _92  and  _94
REMARK   40  A    between atoms: _94  and  _95
REMARK   41  A    between atoms: _94  and  _97
REMARK   42  A    between atoms: _100  and  _102
REMARK   43  A    between atoms: _102  and  _103
REMARK   44  A    between atoms: _102  and  _105
REMARK   45  A    between atoms: _105  and  _106
REMARK   46  A    between atoms: _106  and  _107
REMARK   47  A    between atoms: _107  and  _108
REMARK   48  A    between atoms: _108  and  _109
REMARK   49  A    between atoms: _113  and  _115
REMARK   50  A    between atoms: _115  and  _116
REMARK   51  A    between atoms: _115  and  _118
REMARK   52  A    between atoms: _118  and  _119
REMARK   53  A    between atoms: _119  and  _120
REMARK   54  A    between atoms: _122  and  _124
REMARK   55  A    between atoms: _124  and  _125
REMARK   56  A    between atoms: _124  and  _127
REMARK   57  A    between atoms: _127  and  _128
REMARK   58  A    between atoms: _131  and  _133
REMARK   59  A    between atoms: _133  and  _134
REMARK   60  A    between atoms: _136  and  _138
REMARK   61  A    between atoms: _138  and  _139
REMARK   62  A    between atoms: _141  and  _143
REMARK   63  A    between atoms: _143  and  _144
REMARK   64  A    between atoms: _143  and  _146
REMARK   65  A    between atoms: _146  and  _147
REMARK   66  A    between atoms: _150  and  _152
REMARK   67  A    between atoms: _152  and  _153
REMARK   68  A    between atoms: _155  and  _157
REMARK   69  A    between atoms: _157  and  _158
REMARK   70  A    between atoms: _160  and  _162
REMARK   71  A    between atoms: _162  and  _163
REMARK   72  A    between atoms: _162  and  _165
REMARK   73  A    between atoms: _165  and  _166
REMARK   74  A    between atoms: _172  and  _174
REMARK   75  A    between atoms: _174  and  _175
REMARK   76  A    between atoms: _174  and  _177
REMARK   77  A    between atoms: _180  and  _182
REMARK   78  A    between atoms: _182  and  _183
REMARK   79  A    between atoms: _182  and  _185
REMARK   80  A    between atoms: _188  and  _190
REMARK   81  A    between atoms: _190  and  _191
REMARK   82  A    between atoms: _190  and  _193
REMARK   83  A    between atoms: _193  and  _194
REMARK   84  A    between atoms: _198  and  _199
REMARK   85  A    between atoms: _204  and  _206
REMARK   86  A    between atoms: _206  and  _207
REMARK   87  A    between atoms: _206  and  _209
REMARK   88  A    between atoms: _209  and  _210
REMARK   89  A    between atoms: _214  and  _215
REMARK   90  A    between atoms: _220  and  _222
REMARK   91  A    between atoms: _222  and  _223
REMARK   92  A    between atoms: _222  and  _225
REMARK   93  A    between atoms: _228  and  _230
REMARK   94  A    between atoms: _230  and  _231
REMARK   95  A    between atoms: _230  and  _233
REMARK   96  A    between atoms: _233  and  _234
REMARK   97  A    between atoms: _239  and  _241
REMARK   98  A    between atoms: _241  and  _242
REMARK   99  A    between atoms: _241  and  _244
REMARK  100  A    between atoms: _244  and  _245
REMARK  101  A    between atoms: _248  and  _250
REMARK  102  A    between atoms: _250  and  _251
REMARK  103  A    between atoms: _250  and  _253
REMARK  104  A    between atoms: _253  and  _254
REMARK  105  A    between atoms: _257  and  _259
REMARK  106  A    between atoms: _259  and  _260
REMARK  107  A    between atoms: _262  and  _264
REMARK  108  A    between atoms: _264  and  _265
REMARK  109  A    between atoms: _264  and  _267
REMARK  110  A    between atoms: _267  and  _268
REMARK  111  A    between atoms: _268  and  _269
REMARK  112  A    between atoms: _269  and  _270
REMARK  113  A    between atoms: _279  and  _281
REMARK  114  A    between atoms: _281  and  _282
REMARK  115  A    between atoms: _281  and  _284
REMARK  116  A    between atoms: _284  and  _285
REMARK  117  A    between atoms: _290  and  _292
REMARK  118  A    between atoms: _292  and  _293
REMARK  119  A    between atoms: _292  and  _295
REMARK  120  A    between atoms: _295  and  _296
REMARK  121  A    between atoms: _296  and  _297
REMARK  122  A    between atoms: _297  and  _298
REMARK  123  A    between atoms: _307  and  _309
REMARK  124  A    between atoms: _309  and  _310
REMARK  125  A    between atoms: _309  and  _312
REMARK  126  A    between atoms: _312  and  _313
REMARK  127  A    between atoms: _316  and  _318
REMARK  128  A    between atoms: _318  and  _319
REMARK  129  A    between atoms: _318  and  _321
REMARK  130  A    between atoms: _321  and  _322
REMARK  131  A    between atoms: _325  and  _327
REMARK  132  A    between atoms: _327  and  _328
REMARK  133  A    between atoms: _327  and  _330
REMARK  134  A    between atoms: _330  and  _331
REMARK  135  A    between atoms: _334  and  _336
REMARK  136  A    between atoms: _336  and  _337
REMARK  137  A    between atoms: _336  and  _339
REMARK  138  A    between atoms: _339  and  _340
REMARK  139  A    between atoms: _343  and  _345
REMARK  140  A    between atoms: _345  and  _346
REMARK  141  A    between atoms: _348  and  _350
REMARK  142  A    between atoms: _350  and  _351
REMARK  143  A    between atoms: _354  and  _356
REMARK  144  A    between atoms: _356  and  _357
REMARK  145  A    between atoms: _356  and  _359
REMARK  146  A    between atoms: _359  and  _360
REMARK  147  A    between atoms: _363  and  _365
REMARK  148  A    between atoms: _365  and  _366
REMARK  149  A    between atoms: _365  and  _368
REMARK  150  A    between atoms: _368  and  _369
REMARK  151  A    between atoms: _372  and  _374
REMARK  152  A    between atoms: _374  and  _375
REMARK  153  A    between atoms: _374  and  _377
REMARK  154  A    between atoms: _377  and  _378
REMARK  155  A    between atoms: _381  and  _383
REMARK  156  A    between atoms: _383  and  _384
REMARK  157  A    between atoms: _383  and  _386
REMARK  158  A    between atoms: _389  and  _391
REMARK  159  A    between atoms: _391  and  _392
REMARK  160  A    between atoms: _391  and  _394
REMARK  161  A    between atoms: _394  and  _395
REMARK  162  A    between atoms: _395  and  _396
REMARK  163  A    between atoms: _396  and  _397
REMARK  164  A    between atoms: _397  and  _398
REMARK  165  A    between atoms: _402  and  _404
REMARK  166  A    between atoms: _404  and  _405
REMARK  167  A    between atoms: _404  and  _407
REMARK  168  A    between atoms: _407  and  _408
REMARK  169  A    between atoms: _408  and  _409
REMARK  170  A    between atoms: _411  and  _413
REMARK  171  A    between atoms: _413  and  _414
REMARK  172  A    between atoms: _413  and  _416
REMARK  173  A    between atoms: _416  and  _417
REMARK  174  A    between atoms: _420  and  _422
REMARK  175  A    between atoms: _422  and  _423
REMARK  176  A    between atoms: _425  and  _427
REMARK  177  A    between atoms: _427  and  _428
REMARK  178  A    between atoms: _430  and  _432
REMARK  179  A    between atoms: _432  and  _433
REMARK  180  A    between atoms: _432  and  _435
REMARK  181  A    between atoms: _435  and  _436
REMARK  182  A    between atoms: _439  and  _441
REMARK  183  A    between atoms: _441  and  _442
REMARK  184  A    between atoms: _444  and  _446
REMARK  185  A    between atoms: _446  and  _447
REMARK  186  A    between atoms: _449  and  _451
REMARK  187  A    between atoms: _451  and  _452
REMARK  188  A    between atoms: _451  and  _454
REMARK  189  A    between atoms: _454  and  _455
REMARK  190  A    between atoms: _461  and  _463
REMARK  191  A    between atoms: _463  and  _464
REMARK  192  A    between atoms: _463  and  _466
REMARK  193  A    between atoms: _469  and  _471
REMARK  194  A    between atoms: _471  and  _472
REMARK  195  A    between atoms: _471  and  _474
REMARK  196  A    between atoms: _477  and  _479
REMARK  197  A    between atoms: _479  and  _480
REMARK  198  A    between atoms: _479  and  _482
REMARK  199  A    between atoms: _482  and  _483
REMARK  200  A    between atoms: _487  and  _488
REMARK  201  A    between atoms: _493  and  _495
REMARK  202  A    between atoms: _495  and  _496
REMARK  203  A    between atoms: _495  and  _498
REMARK  204  A    between atoms: _498  and  _499
REMARK  205  A    between atoms: _503  and  _504
REMARK  206  A    between atoms: _509  and  _511
REMARK  207  A    between atoms: _511  and  _512
REMARK  208  A    between atoms: _511  and  _514
REMARK  209  A    between atoms: _517  and  _519
REMARK  210  A    between atoms: _519  and  _520
REMARK  211  A    between atoms: _519  and  _522
REMARK  212  A    between atoms: _522  and  _523
REMARK  213  A    between atoms: _528  and  _530
REMARK  214  A    between atoms: _530  and  _531
REMARK  215  A    between atoms: _530  and  _533
REMARK  216  A    between atoms: _533  and  _534
REMARK  217  A    between atoms: _537  and  _539
REMARK  218  A    between atoms: _539  and  _540
REMARK  219  A    between atoms: _539  and  _542
REMARK  220  A    between atoms: _542  and  _543
REMARK  221  A    between atoms: _546  and  _548
REMARK  222  A    between atoms: _548  and  _549
REMARK  223  A    between atoms: _551  and  _553
REMARK  224  A    between atoms: _553  and  _554
REMARK  225  A    between atoms: _553  and  _556
REMARK  226  A    between atoms: _556  and  _557
REMARK  227  A    between atoms: _557  and  _558
REMARK  228  A    between atoms: _558  and  _559
REMARK                            x       y       z     vdW  Elec       q    Type
REMARK                         _______ _______ _______ _____ _____    ______ ____
ROOT
ATOM      1  O   HOH     1      18.314  30.828  21.841  0.00  0.00    +0.000 OA
ENDROOT
TORSDOF 0
REMARK  Name = ../refined-set-2016/3d1y/3d1y_pocket.pdb
REMARK  228 active torsions:
REMARK  status: ('A' for Active; 'I' for Inactive)
REMARK    1  A    between atoms: _1  and  _3
REMARK    2  A    between atoms: _3  and  _4
REMARK    3  A    between atoms: _3  and  _6
REMARK    4  A    between atoms: _6  and  _7
REMARK    5  A    between atoms: _7  and  _8
REMARK    6  A    between atoms: _8  and  _9
REMARK    7  A    between atoms: _18  and  _20
REMARK    8  A    between atoms: _20  and  _21
REMARK    9  A    between atoms: _20  and  _23
REMARK   10  A    between atoms: _23  and  _24
REMARK   11  A    between atoms: _27  and  _29
REMARK   12  A    between atoms: _29  and  _30
REMARK   13  A    between atoms: _29  and  _32
REMARK   14  A    between atoms: _32  and  _33
REMARK   15  A    between atoms: _36  and  _38
REMARK   16  A    between atoms: _38  and  _39
REMARK   17  A    between atoms: _38  and  _41
REMARK   18  A    between atoms: _41  and  _42
REMARK   19  A    between atoms: _45  and  _47
REMARK   20  A    between atoms: _47  and  _48
REMARK   21  A    between atoms: _47  and  _50
REMARK   22  A    between atoms: _50  and  _51
REMARK   23  A    between atoms: _54  and  _56
REMARK   24  A    between atoms: _56  and  _57
REMARK   25  A    between atoms: _59  and  _61
REMARK   26  A    between atoms: _61  and  _62
REMARK   27  A    between atoms: _65  and  _67
REMARK   28  A    between atoms: _67  and  _68
REMARK   29  A    between atoms: _67  and  _70
REMARK   30  A    between atoms: _70  and  _71
REMARK   31  A    between atoms: _74  and  _76
REMARK   32  A    between atoms: _76  and  _77
REMARK   33  A    between atoms: _76  and  _79
REMARK   34  A    between atoms: _79  and  _80
REMARK   35  A    between atoms: _83  and  _85
REMARK   36  A    between atoms: _85  and  _86
REMARK   37  A    between atoms: _85  and  _88
REMARK   38  A    between atoms: _88  and  _89
REMARK   39  A    between atoms: _92  and  _94
REMARK   40  A    between atoms: _94  and  _95
REMARK   41  A    between atoms: _94  and  _97
REMARK   42  A    between atoms: _100  and  _102
REMARK   43  A    between atoms: _102  and  _103
REMARK   44  A    between atoms: _102  and  _105
REMARK   45  A    between atoms: _105  and  _106
REMARK   46  A    between atoms: _106  and  _107
REMARK   47  A    between atoms: _107  and  _108
REMARK   48  A    between atoms: _108  and  _109
REMARK   49  A    between atoms: _113  and  _115
REMARK   50  A    between atoms: _115  and  _116
REMARK   51  A    between atoms: _115  and  _118
REMARK   52  A    between atoms: _118  and  _119
REMARK   53  A    between atoms: _119  and  _120
REMARK   54  A    between atoms: _122  and  _124
REMARK   55  A    between atoms: _124  and  _125
REMARK   56  A    between atoms: _124  and  _127
REMARK   57  A    between atoms: _127  and  _128
REMARK   58  A    between atoms: _131  and  _133
REMARK   59  A    between atoms: _133  and  _134
REMARK   60  A    between atoms: _136  and  _138
REMARK   61  A    between atoms: _138  and  _139
REMARK   62  A    between atoms: _141  and  _143
REMARK   63  A    between atoms: _143  and  _144
REMARK   64  A    between atoms: _143  and  _146
REMARK   65  A    between atoms: _146  and  _147
REMARK   66  A    between atoms: _150  and  _152
REMARK   67  A    between atoms: _152  and  _153
REMARK   68  A    between atoms: _155  and  _157
REMARK   69  A    between atoms: _157  and  _158
REMARK   70  A    between atoms: _160  and  _162
REMARK   71  A    between atoms: _162  and  _163
REMARK   72  A    between atoms: _162  and  _165
REMARK   73  A    between atoms: _165  and  _166
REMARK   74  A    between atoms: _172  and  _174
REMARK   75  A    between atoms: _174  and  _175
REMARK   76  A    between atoms: _174  and  _177
REMARK   77  A    between atoms: _180  and  _182
REMARK   78  A    between atoms: _182  and  _183
REMARK   79  A    between atoms: _182  and  _185
REMARK   80  A    between atoms: _188  and  _190
REMARK   81  A    between atoms: _190  and  _191
REMARK   82  A    between atoms: _190  and  _193
REMARK   83  A    between atoms: _193  and  _194
REMARK   84  A    between atoms: _198  and  _199
REMARK   85  A    between atoms: _204  and  _206
REMARK   86  A    between atoms: _206  and  _207
REMARK   87  A    between atoms: _206  and  _209
REMARK   88  A    between atoms: _209  and  _210
REMARK   89  A    between atoms: _214  and  _215
REMARK   90  A    between atoms: _220  and  _222
REMARK   91  A    between atoms: _222  and  _223
REMARK   92  A    between atoms: _222  and  _225
REMARK   93  A    between atoms: _228  and  _230
REMARK   94  A    between atoms: _230  and  _231
REMARK   95  A    between atoms: _230  and  _233
REMARK   96  A    between atoms: _233  and  _234
REMARK   97  A    between atoms: _239  and  _241
REMARK   98  A    between atoms: _241  and  _242
REMARK   99  A    between atoms: _241  and  _244
REMARK  100  A    between atoms: _244  and  _245
REMARK  101  A    between atoms: _248  and  _250
REMARK  102  A    between atoms: _250  and  _251
REMARK  103  A    between atoms: _250  and  _253
REMARK  104  A    between atoms: _253  and  _254
REMARK  105  A    between atoms: _257  and  _259
REMARK  106  A    between atoms: _259  and  _260
REMARK  107  A    between atoms: _262  and  _264
REMARK  108  A    between atoms: _264  and  _265
REMARK  109  A    between atoms: _264  and  _267
REMARK  110  A    between atoms: _267  and  _268
REMARK  111  A    between atoms: _268  and  _269
REMARK  112  A    between atoms: _269  and  _270
REMARK  113  A    between atoms: _279  and  _281
REMARK  114  A    between atoms: _281  and  _282
REMARK  115  A    between atoms: _281  and  _284
REMARK  116  A    between atoms: _284  and  _285
REMARK  117  A    between atoms: _290  and  _292
REMARK  118  A    between atoms: _292  and  _293
REMARK  119  A    between atoms: _292  and  _295
REMARK  120  A    between atoms: _295  and  _296
REMARK  121  A    between atoms: _296  and  _297
REMARK  122  A    between atoms: _297  and  _298
REMARK  123  A    between atoms: _307  and  _309
REMARK  124  A    between atoms: _309  and  _310
REMARK  125  A    between atoms: _309  and  _312
REMARK  126  A    between atoms: _312  and  _313
REMARK  127  A    between atoms: _316  and  _318
REMARK  128  A    between atoms: _318  and  _319
REMARK  129  A    between atoms: _318  and  _321
REMARK  130  A    between atoms: _321  and  _322
REMARK  131  A    between atoms: _325  and  _327
REMARK  132  A    between atoms: _327  and  _328
REMARK  133  A    between atoms: _327  and  _330
REMARK  134  A    between atoms: _330  and  _331
REMARK  135  A    between atoms: _334  and  _336
REMARK  136  A    between atoms: _336  and  _337
REMARK  137  A    between atoms: _336  and  _339
REMARK  138  A    between atoms: _339  and  _340
REMARK  139  A    between atoms: _343  and  _345
REMARK  140  A    between atoms: _345  and  _346
REMARK  141  A    between atoms: _348  and  _350
REMARK  142  A    between atoms: _350  and  _351
REMARK  143  A    between atoms: _354  and  _356
REMARK  144  A    between atoms: _356  and  _357
REMARK  145  A    between atoms: _356  and  _359
REMARK  146  A    between atoms: _359  and  _360
REMARK  147  A    between atoms: _363  and  _365
REMARK  148  A    between atoms: _365  and  _366
REMARK  149  A    between atoms: _365  and  _368
REMARK  150  A    between atoms: _368  and  _369
REMARK  151  A    between atoms: _372  and  _374
REMARK  152  A    between atoms: _374  and  _375
REMARK  153  A    between atoms: _374  and  _377
REMARK  154  A    between atoms: _377  and  _378
REMARK  155  A    between atoms: _381  and  _383
REMARK  156  A    between atoms: _383  and  _384
REMARK  157  A    between atoms: _383  and  _386
REMARK  158  A    between atoms: _389  and  _391
REMARK  159  A    between atoms: _391  and  _392
REMARK  160  A    between atoms: _391  and  _394
REMARK  161  A    between atoms: _394  and  _395
REMARK  162  A    between atoms: _395  and  _396
REMARK  163  A    between atoms: _396  and  _397
REMARK  164  A    between atoms: _397  and  _398
REMARK  165  A    between atoms: _402  and  _404
REMARK  166  A    between atoms: _404  and  _405
REMARK  167  A    between atoms: _404  and  _407
REMARK  168  A    between atoms: _407  and  _408
REMARK  169  A    between atoms: _408  and  _409
REMARK  170  A    between atoms: _411  and  _413
REMARK  171  A    between atoms: _413  and  _414
REMARK  172  A    between atoms: _413  and  _416
REMARK  173  A    between atoms: _416  and  _417
REMARK  174  A    between atoms: _420  and  _422
REMARK  175  A    between atoms: _422  and  _423
REMARK  176  A    between atoms: _425  and  _427
REMARK  177  A    between atoms: _427  and  _428
REMARK  178  A    between atoms: _430  and  _432
REMARK  179  A    between atoms: _432  and  _433
REMARK  180  A    between atoms: _432  and  _435
REMARK  181  A    between atoms: _435  and  _436
REMARK  182  A    between atoms: _439  and  _441
REMARK  183  A    between atoms: _441  and  _442
REMARK  184  A    between atoms: _444  and  _446
REMARK  185  A    between atoms: _446  and  _447
REMARK  186  A    between atoms: _449  and  _451
REMARK  187  A    between atoms: _451  and  _452
REMARK  188  A    between atoms: _451  and  _454
REMARK  189  A    between atoms: _454  and  _455
REMARK  190  A    between atoms: _461  and  _463
REMARK  191  A    between atoms: _463  and  _464
REMARK  192  A    between atoms: _463  and  _466
REMARK  193  A    between atoms: _469  and  _471
REMARK  194  A    between atoms: _471  and  _472
REMARK  195  A    between atoms: _471  and  _474
REMARK  196  A    between atoms: _477  and  _479
REMARK  197  A    between atoms: _479  and  _480
REMARK  198  A    between atoms: _479  and  _482
REMARK  199  A    between atoms: _482  and  _483
REMARK  200  A    between atoms: _487  and  _488
REMARK  201  A    between atoms: _493  and  _495
REMARK  202  A    between atoms: _495  and  _496
REMARK  203  A    between atoms: _495  and  _498
REMARK  204  A    between atoms: _498  and  _499
REMARK  205  A    between atoms: _503  and  _504
REMARK  206  A    between atoms: _509  and  _511
REMARK  207  A    between atoms: _511  and  _512
REMARK  208  A    between atoms: _511  and  _514
REMARK  209  A    between atoms: _517  and  _519
REMARK  210  A    between atoms: _519  and  _520
REMARK  211  A    between atoms: _519  and  _522
REMARK  212  A    between atoms: _522  and  _523
REMARK  213  A    between atoms: _528  and  _530
REMARK  214  A    between atoms: _530  and  _531
REMARK  215  A    between atoms: _530  and  _533
REMARK  216  A    between atoms: _533  and  _534
REMARK  217  A    between atoms: _537  and  _539
REMARK  218  A    between atoms: _539  and  _540
REMARK  219  A    between atoms: _539  and  _542
REMARK  220  A    between atoms: _542  and  _543
REMARK  221  A    between atoms: _546  and  _548
REMARK  222  A    between atoms: _548  and  _549
REMARK  223  A    between atoms: _551  and  _553
REMARK  224  A    between atoms: _553  and  _554
REMARK  225  A    between atoms: _553  and  _556
REMARK  226  A    between atoms: _556  and  _557
REMARK  227  A    between atoms: _557  and  _558
REMARK  228  A    between atoms: _558  and  _559
REMARK                            x       y       z     vdW  Elec       q    Type
REMARK                         _______ _______ _______ _____ _____    ______ ____
ROOT
ATOM      1  O   HOH     1      19.996  28.758  21.242  0.00  0.00    +0.000 OA
ENDROOT
TORSDOF 0
REMARK  Name = ../refined-set-2016/3d1y/3d1y_pocket.pdb
REMARK  228 active torsions:
REMARK  status: ('A' for Active; 'I' for Inactive)
REMARK    1  A    between atoms: _1  and  _3
REMARK    2  A    between atoms: _3  and  _4
REMARK    3  A    between atoms: _3  and  _6
REMARK    4  A    between atoms: _6  and  _7
REMARK    5  A    between atoms: _7  and  _8
REMARK    6  A    between atoms: _8  and  _9
REMARK    7  A    between atoms: _18  and  _20
REMARK    8  A    between atoms: _20  and  _21
REMARK    9  A    between atoms: _20  and  _23
REMARK   10  A    between atoms: _23  and  _24
REMARK   11  A    between atoms: _27  and  _29
REMARK   12  A    between atoms: _29  and  _30
REMARK   13  A    between atoms: _29  and  _32
REMARK   14  A    between atoms: _32  and  _33
REMARK   15  A    between atoms: _36  and  _38
REMARK   16  A    between atoms: _38  and  _39
REMARK   17  A    between atoms: _38  and  _41
REMARK   18  A    between atoms: _41  and  _42
REMARK   19  A    between atoms: _45  and  _47
REMARK   20  A    between atoms: _47  and  _48
REMARK   21  A    between atoms: _47  and  _50
REMARK   22  A    between atoms: _50  and  _51
REMARK   23  A    between atoms: _54  and  _56
REMARK   24  A    between atoms: _56  and  _57
REMARK   25  A    between atoms: _59  and  _61
REMARK   26  A    between atoms: _61  and  _62
REMARK   27  A    between atoms: _65  and  _67
REMARK   28  A    between atoms: _67  and  _68
REMARK   29  A    between atoms: _67  and  _70
REMARK   30  A    between atoms: _70  and  _71
REMARK   31  A    between atoms: _74  and  _76
REMARK   32  A    between atoms: _76  and  _77
REMARK   33  A    between atoms: _76  and  _79
REMARK   34  A    between atoms: _79  and  _80
REMARK   35  A    between atoms: _83  and  _85
REMARK   36  A    between atoms: _85  and  _86
REMARK   37  A    between atoms: _85  and  _88
REMARK   38  A    between atoms: _88  and  _89
REMARK   39  A    between atoms: _92  and  _94
REMARK   40  A    between atoms: _94  and  _95
REMARK   41  A    between atoms: _94  and  _97
REMARK   42  A    between atoms: _100  and  _102
REMARK   43  A    between atoms: _102  and  _103
REMARK   44  A    between atoms: _102  and  _105
REMARK   45  A    between atoms: _105  and  _106
REMARK   46  A    between atoms: _106  and  _107
REMARK   47  A    between atoms: _107  and  _108
REMARK   48  A    between atoms: _108  and  _109
REMARK   49  A    between atoms: _113  and  _115
REMARK   50  A    between atoms: _115  and  _116
REMARK   51  A    between atoms: _115  and  _118
REMARK   52  A    between atoms: _118  and  _119
REMARK   53  A    between atoms: _119  and  _120
REMARK   54  A    between atoms: _122  and  _124
REMARK   55  A    between atoms: _124  and  _125
REMARK   56  A    between atoms: _124  and  _127
REMARK   57  A    between atoms: _127  and  _128
REMARK   58  A    between atoms: _131  and  _133
REMARK   59  A    between atoms: _133  and  _134
REMARK   60  A    between atoms: _136  and  _138
REMARK   61  A    between atoms: _138  and  _139
REMARK   62  A    between atoms: _141  and  _143
REMARK   63  A    between atoms: _143  and  _144
REMARK   64  A    between atoms: _143  and  _146
REMARK   65  A    between atoms: _146  and  _147
REMARK   66  A    between atoms: _150  and  _152
REMARK   67  A    between atoms: _152  and  _153
REMARK   68  A    between atoms: _155  and  _157
REMARK   69  A    between atoms: _157  and  _158
REMARK   70  A    between atoms: _160  and  _162
REMARK   71  A    between atoms: _162  and  _163
REMARK   72  A    between atoms: _162  and  _165
REMARK   73  A    between atoms: _165  and  _166
REMARK   74  A    between atoms: _172  and  _174
REMARK   75  A    between atoms: _174  and  _175
REMARK   76  A    between atoms: _174  and  _177
REMARK   77  A    between atoms: _180  and  _182
REMARK   78  A    between atoms: _182  and  _183
REMARK   79  A    between atoms: _182  and  _185
REMARK   80  A    between atoms: _188  and  _190
REMARK   81  A    between atoms: _190  and  _191
REMARK   82  A    between atoms: _190  and  _193
REMARK   83  A    between atoms: _193  and  _194
REMARK   84  A    between atoms: _198  and  _199
REMARK   85  A    between atoms: _204  and  _206
REMARK   86  A    between atoms: _206  and  _207
REMARK   87  A    between atoms: _206  and  _209
REMARK   88  A    between atoms: _209  and  _210
REMARK   89  A    between atoms: _214  and  _215
REMARK   90  A    between atoms: _220  and  _222
REMARK   91  A    between atoms: _222  and  _223
REMARK   92  A    between atoms: _222  and  _225
REMARK   93  A    between atoms: _228  and  _230
REMARK   94  A    between atoms: _230  and  _231
REMARK   95  A    between atoms: _230  and  _233
REMARK   96  A    between atoms: _233  and  _234
REMARK   97  A    between atoms: _239  and  _241
REMARK   98  A    between atoms: _241  and  _242
REMARK   99  A    between atoms: _241  and  _244
REMARK  100  A    between atoms: _244  and  _245
REMARK  101  A    between atoms: _248  and  _250
REMARK  102  A    between atoms: _250  and  _251
REMARK  103  A    between atoms: _250  and  _253
REMARK  104  A    between atoms: _253  and  _254
REMARK  105  A    between atoms: _257  and  _259
REMARK  106  A    between atoms: _259  and  _260
REMARK  107  A    between atoms: _262  and  _264
REMARK  108  A    between atoms: _264  and  _265
REMARK  109  A    between atoms: _264  and  _267
REMARK  110  A    between atoms: _267  and  _268
REMARK  111  A    between atoms: _268  and  _269
REMARK  112  A    between atoms: _269  and  _270
REMARK  113  A    between atoms: _279  and  _281
REMARK  114  A    between atoms: _281  and  _282
REMARK  115  A    between atoms: _281  and  _284
REMARK  116  A    between atoms: _284  and  _285
REMARK  117  A    between atoms: _290  and  _292
REMARK  118  A    between atoms: _292  and  _293
REMARK  119  A    between atoms: _292  and  _295
REMARK  120  A    between atoms: _295  and  _296
REMARK  121  A    between atoms: _296  and  _297
REMARK  122  A    between atoms: _297  and  _298
REMARK  123  A    between atoms: _307  and  _309
REMARK  124  A    between atoms: _309  and  _310
REMARK  125  A    between atoms: _309  and  _312
REMARK  126  A    between atoms: _312  and  _313
REMARK  127  A    between atoms: _316  and  _318
REMARK  128  A    between atoms: _318  and  _319
REMARK  129  A    between atoms: _318  and  _321
REMARK  130  A    between atoms: _321  and  _322
REMARK  131  A    between atoms: _325  and  _327
REMARK  132  A    between atoms: _327  and  _328
REMARK  133  A    between atoms: _327  and  _330
REMARK  134  A    between atoms: _330  and  _331
REMARK  135  A    between atoms: _334  and  _336
REMARK  136  A    between atoms: _336  and  _337
REMARK  137  A    between atoms: _336  and  _339
REMARK  138  A    between atoms: _339  and  _340
REMARK  139  A    between atoms: _343  and  _345
REMARK  140  A    between atoms: _345  and  _346
REMARK  141  A    between atoms: _348  and  _350
REMARK  142  A    between atoms: _350  and  _351
REMARK  143  A    between atoms: _354  and  _356
REMARK  144  A    between atoms: _356  and  _357
REMARK  145  A    between atoms: _356  and  _359
REMARK  146  A    between atoms: _359  and  _360
REMARK  147  A    between atoms: _363  and  _365
REMARK  148  A    between atoms: _365  and  _366
REMARK  149  A    between atoms: _365  and  _368
REMARK  150  A    between atoms: _368  and  _369
REMARK  151  A    between atoms: _372  and  _374
REMARK  152  A    between atoms: _374  and  _375
REMARK  153  A    between atoms: _374  and  _377
REMARK  154  A    between atoms: _377  and  _378
REMARK  155  A    between atoms: _381  and  _383
REMARK  156  A    between atoms: _383  and  _384
REMARK  157  A    between atoms: _383  and  _386
REMARK  158  A    between atoms: _389  and  _391
REMARK  159  A    between atoms: _391  and  _392
REMARK  160  A    between atoms: _391  and  _394
REMARK  161  A    between atoms: _394  and  _395
REMARK  162  A    between atoms: _395  and  _396
REMARK  163  A    between atoms: _396  and  _397
REMARK  164  A    between atoms: _397  and  _398
REMARK  165  A    between atoms: _402  and  _404
REMARK  166  A    between atoms: _404  and  _405
REMARK  167  A    between atoms: _404  and  _407
REMARK  168  A    between atoms: _407  and  _408
REMARK  169  A    between atoms: _408  and  _409
REMARK  170  A    between atoms: _411  and  _413
REMARK  171  A    between atoms: _413  and  _414
REMARK  172  A    between atoms: _413  and  _416
REMARK  173  A    between atoms: _416  and  _417
REMARK  174  A    between atoms: _420  and  _422
REMARK  175  A    between atoms: _422  and  _423
REMARK  176  A    between atoms: _425  and  _427
REMARK  177  A    between atoms: _427  and  _428
REMARK  178  A    between atoms: _430  and  _432
REMARK  179  A    between atoms: _432  and  _433
REMARK  180  A    between atoms: _432  and  _435
REMARK  181  A    between atoms: _435  and  _436
REMARK  182  A    between atoms: _439  and  _441
REMARK  183  A    between atoms: _441  and  _442
REMARK  184  A    between atoms: _444  and  _446
REMARK  185  A    between atoms: _446  and  _447
REMARK  186  A    between atoms: _449  and  _451
REMARK  187  A    between atoms: _451  and  _452
REMARK  188  A    between atoms: _451  and  _454
REMARK  189  A    between atoms: _454  and  _455
REMARK  190  A    between atoms: _461  and  _463
REMARK  191  A    between atoms: _463  and  _464
REMARK  192  A    between atoms: _463  and  _466
REMARK  193  A    between atoms: _469  and  _471
REMARK  194  A    between atoms: _471  and  _472
REMARK  195  A    between atoms: _471  and  _474
REMARK  196  A    between atoms: _477  and  _479
REMARK  197  A    between atoms: _479  and  _480
REMARK  198  A    between atoms: _479  and  _482
REMARK  199  A    between atoms: _482  and  _483
REMARK  200  A    between atoms: _487  and  _488
REMARK  201  A    between atoms: _493  and  _495
REMARK  202  A    between atoms: _495  and  _496
REMARK  203  A    between atoms: _495  and  _498
REMARK  204  A    between atoms: _498  and  _499
REMARK  205  A    between atoms: _503  and  _504
REMARK  206  A    between atoms: _509  and  _511
REMARK  207  A    between atoms: _511  and  _512
REMARK  208  A    between atoms: _511  and  _514
REMARK  209  A    between atoms: _517  and  _519
REMARK  210  A    between atoms: _519  and  _520
REMARK  211  A    between atoms: _519  and  _522
REMARK  212  A    between atoms: _522  and  _523
REMARK  213  A    between atoms: _528  and  _530
REMARK  214  A    between atoms: _530  and  _531
REMARK  215  A    between atoms: _530  and  _533
REMARK  216  A    between atoms: _533  and  _534
REMARK  217  A    between atoms: _537  and  _539
REMARK  218  A    between atoms: _539  and  _540
REMARK  219  A    between atoms: _539  and  _542
REMARK  220  A    between atoms: _542  and  _543
REMARK  221  A    between atoms: _546  and  _548
REMARK  222  A    between atoms: _548  and  _549
REMARK  223  A    between atoms: _551  and  _553
REMARK  224  A    between atoms: _553  and  _554
REMARK  225  A    between atoms: _553  and  _556
REMARK  226  A    between atoms: _556  and  _557
REMARK  227  A    between atoms: _557  and  _558
REMARK  228  A    between atoms: _558  and  _559
REMARK                            x       y       z     vdW  Elec       q    Type
REMARK                         _______ _______ _______ _____ _____    ______ ____
ROOT
ATOM      1  O   HOH     1      20.815  33.415  10.674  0.00  0.00    +0.000 OA
ENDROOT
TORSDOF 0
REMARK  Name = ../refined-set-2016/3d1y/3d1y_pocket.pdb
REMARK  228 active torsions:
REMARK  status: ('A' for Active; 'I' for Inactive)
REMARK    1  A    between atoms: _1  and  _3
REMARK    2  A    between atoms: _3  and  _4
REMARK    3  A    between atoms: _3  and  _6
REMARK    4  A    between atoms: _6  and  _7
REMARK    5  A    between atoms: _7  and  _8
REMARK    6  A    between atoms: _8  and  _9
REMARK    7  A    between atoms: _18  and  _20
REMARK    8  A    between atoms: _20  and  _21
REMARK    9  A    between atoms: _20  and  _23
REMARK   10  A    between atoms: _23  and  _24
REMARK   11  A    between atoms: _27  and  _29
REMARK   12  A    between atoms: _29  and  _30
REMARK   13  A    between atoms: _29  and  _32
REMARK   14  A    between atoms: _32  and  _33
REMARK   15  A    between atoms: _36  and  _38
REMARK   16  A    between atoms: _38  and  _39
REMARK   17  A    between atoms: _38  and  _41
REMARK   18  A    between atoms: _41  and  _42
REMARK   19  A    between atoms: _45  and  _47
REMARK   20  A    between atoms: _47  and  _48
REMARK   21  A    between atoms: _47  and  _50
REMARK   22  A    between atoms: _50  and  _51
REMARK   23  A    between atoms: _54  and  _56
REMARK   24  A    between atoms: _56  and  _57
REMARK   25  A    between atoms: _59  and  _61
REMARK   26  A    between atoms: _61  and  _62
REMARK   27  A    between atoms: _65  and  _67
REMARK   28  A    between atoms: _67  and  _68
REMARK   29  A    between atoms: _67  and  _70
REMARK   30  A    between atoms: _70  and  _71
REMARK   31  A    between atoms: _74  and  _76
REMARK   32  A    between atoms: _76  and  _77
REMARK   33  A    between atoms: _76  and  _79
REMARK   34  A    between atoms: _79  and  _80
REMARK   35  A    between atoms: _83  and  _85
REMARK   36  A    between atoms: _85  and  _86
REMARK   37  A    between atoms: _85  and  _88
REMARK   38  A    between atoms: _88  and  _89
REMARK   39  A    between atoms: _92  and  _94
REMARK   40  A    between atoms: _94  and  _95
REMARK   41  A    between atoms: _94  and  _97
REMARK   42  A    between atoms: _100  and  _102
REMARK   43  A    between atoms: _102  and  _103
REMARK   44  A    between atoms: _102  and  _105
REMARK   45  A    between atoms: _105  and  _106
REMARK   46  A    between atoms: _106  and  _107
REMARK   47  A    between atoms: _107  and  _108
REMARK   48  A    between atoms: _108  and  _109
REMARK   49  A    between atoms: _113  and  _115
REMARK   50  A    between atoms: _115  and  _116
REMARK   51  A    between atoms: _115  and  _118
REMARK   52  A    between atoms: _118  and  _119
REMARK   53  A    between atoms: _119  and  _120
REMARK   54  A    between atoms: _122  and  _124
REMARK   55  A    between atoms: _124  and  _125
REMARK   56  A    between atoms: _124  and  _127
REMARK   57  A    between atoms: _127  and  _128
REMARK   58  A    between atoms: _131  and  _133
REMARK   59  A    between atoms: _133  and  _134
REMARK   60  A    between atoms: _136  and  _138
REMARK   61  A    between atoms: _138  and  _139
REMARK   62  A    between atoms: _141  and  _143
REMARK   63  A    between atoms: _143  and  _144
REMARK   64  A    between atoms: _143  and  _146
REMARK   65  A    between atoms: _146  and  _147
REMARK   66  A    between atoms: _150  and  _152
REMARK   67  A    between atoms: _152  and  _153
REMARK   68  A    between atoms: _155  and  _157
REMARK   69  A    between atoms: _157  and  _158
REMARK   70  A    between atoms: _160  and  _162
REMARK   71  A    between atoms: _162  and  _163
REMARK   72  A    between atoms: _162  and  _165
REMARK   73  A    between atoms: _165  and  _166
REMARK   74  A    between atoms: _172  and  _174
REMARK   75  A    between atoms: _174  and  _175
REMARK   76  A    between atoms: _174  and  _177
REMARK   77  A    between atoms: _180  and  _182
REMARK   78  A    between atoms: _182  and  _183
REMARK   79  A    between atoms: _182  and  _185
REMARK   80  A    between atoms: _188  and  _190
REMARK   81  A    between atoms: _190  and  _191
REMARK   82  A    between atoms: _190  and  _193
REMARK   83  A    between atoms: _193  and  _194
REMARK   84  A    between atoms: _198  and  _199
REMARK   85  A    between atoms: _204  and  _206
REMARK   86  A    between atoms: _206  and  _207
REMARK   87  A    between atoms: _206  and  _209
REMARK   88  A    between atoms: _209  and  _210
REMARK   89  A    between atoms: _214  and  _215
REMARK   90  A    between atoms: _220  and  _222
REMARK   91  A    between atoms: _222  and  _223
REMARK   92  A    between atoms: _222  and  _225
REMARK   93  A    between atoms: _228  and  _230
REMARK   94  A    between atoms: _230  and  _231
REMARK   95  A    between atoms: _230  and  _233
REMARK   96  A    between atoms: _233  and  _234
REMARK   97  A    between atoms: _239  and  _241
REMARK   98  A    between atoms: _241  and  _242
REMARK   99  A    between atoms: _241  and  _244
REMARK  100  A    between atoms: _244  and  _245
REMARK  101  A    between atoms: _248  and  _250
REMARK  102  A    between atoms: _250  and  _251
REMARK  103  A    between atoms: _250  and  _253
REMARK  104  A    between atoms: _253  and  _254
REMARK  105  A    between atoms: _257  and  _259
REMARK  106  A    between atoms: _259  and  _260
REMARK  107  A    between atoms: _262  and  _264
REMARK  108  A    between atoms: _264  and  _265
REMARK  109  A    between atoms: _264  and  _267
REMARK  110  A    between atoms: _267  and  _268
REMARK  111  A    between atoms: _268  and  _269
REMARK  112  A    between atoms: _269  and  _270
REMARK  113  A    between atoms: _279  and  _281
REMARK  114  A    between atoms: _281  and  _282
REMARK  115  A    between atoms: _281  and  _284
REMARK  116  A    between atoms: _284  and  _285
REMARK  117  A    between atoms: _290  and  _292
REMARK  118  A    between atoms: _292  and  _293
REMARK  119  A    between atoms: _292  and  _295
REMARK  120  A    between atoms: _295  and  _296
REMARK  121  A    between atoms: _296  and  _297
REMARK  122  A    between atoms: _297  and  _298
REMARK  123  A    between atoms: _307  and  _309
REMARK  124  A    between atoms: _309  and  _310
REMARK  125  A    between atoms: _309  and  _312
REMARK  126  A    between atoms: _312  and  _313
REMARK  127  A    between atoms: _316  and  _318
REMARK  128  A    between atoms: _318  and  _319
REMARK  129  A    between atoms: _318  and  _321
REMARK  130  A    between atoms: _321  and  _322
REMARK  131  A    between atoms: _325  and  _327
REMARK  132  A    between atoms: _327  and  _328
REMARK  133  A    between atoms: _327  and  _330
REMARK  134  A    between atoms: _330  and  _331
REMARK  135  A    between atoms: _334  and  _336
REMARK  136  A    between atoms: _336  and  _337
REMARK  137  A    between atoms: _336  and  _339
REMARK  138  A    between atoms: _339  and  _340
REMARK  139  A    between atoms: _343  and  _345
REMARK  140  A    between atoms: _345  and  _346
REMARK  141  A    between atoms: _348  and  _350
REMARK  142  A    between atoms: _350  and  _351
REMARK  143  A    between atoms: _354  and  _356
REMARK  144  A    between atoms: _356  and  _357
REMARK  145  A    between atoms: _356  and  _359
REMARK  146  A    between atoms: _359  and  _360
REMARK  147  A    between atoms: _363  and  _365
REMARK  148  A    between atoms: _365  and  _366
REMARK  149  A    between atoms: _365  and  _368
REMARK  150  A    between atoms: _368  and  _369
REMARK  151  A    between atoms: _372  and  _374
REMARK  152  A    between atoms: _374  and  _375
REMARK  153  A    between atoms: _374  and  _377
REMARK  154  A    between atoms: _377  and  _378
REMARK  155  A    between atoms: _381  and  _383
REMARK  156  A    between atoms: _383  and  _384
REMARK  157  A    between atoms: _383  and  _386
REMARK  158  A    between atoms: _389  and  _391
REMARK  159  A    between atoms: _391  and  _392
REMARK  160  A    between atoms: _391  and  _394
REMARK  161  A    between atoms: _394  and  _395
REMARK  162  A    between atoms: _395  and  _396
REMARK  163  A    between atoms: _396  and  _397
REMARK  164  A    between atoms: _397  and  _398
REMARK  165  A    between atoms: _402  and  _404
REMARK  166  A    between atoms: _404  and  _405
REMARK  167  A    between atoms: _404  and  _407
REMARK  168  A    between atoms: _407  and  _408
REMARK  169  A    between atoms: _408  and  _409
REMARK  170  A    between atoms: _411  and  _413
REMARK  171  A    between atoms: _413  and  _414
REMARK  172  A    between atoms: _413  and  _416
REMARK  173  A    between atoms: _416  and  _417
REMARK  174  A    between atoms: _420  and  _422
REMARK  175  A    between atoms: _422  and  _423
REMARK  176  A    between atoms: _425  and  _427
REMARK  177  A    between atoms: _427  and  _428
REMARK  178  A    between atoms: _430  and  _432
REMARK  179  A    between atoms: _432  and  _433
REMARK  180  A    between atoms: _432  and  _435
REMARK  181  A    between atoms: _435  and  _436
REMARK  182  A    between atoms: _439  and  _441
REMARK  183  A    between atoms: _441  and  _442
REMARK  184  A    between atoms: _444  and  _446
REMARK  185  A    between atoms: _446  and  _447
REMARK  186  A    between atoms: _449  and  _451
REMARK  187  A    between atoms: _451  and  _452
REMARK  188  A    between atoms: _451  and  _454
REMARK  189  A    between atoms: _454  and  _455
REMARK  190  A    between atoms: _461  and  _463
REMARK  191  A    between atoms: _463  and  _464
REMARK  192  A    between atoms: _463  and  _466
REMARK  193  A    between atoms: _469  and  _471
REMARK  194  A    between atoms: _471  and  _472
REMARK  195  A    between atoms: _471  and  _474
REMARK  196  A    between atoms: _477  and  _479
REMARK  197  A    between atoms: _479  and  _480
REMARK  198  A    between atoms: _479  and  _482
REMARK  199  A    between atoms: _482  and  _483
REMARK  200  A    between atoms: _487  and  _488
REMARK  201  A    between atoms: _493  and  _495
REMARK  202  A    between atoms: _495  and  _496
REMARK  203  A    between atoms: _495  and  _498
REMARK  204  A    between atoms: _498  and  _499
REMARK  205  A    between atoms: _503  and  _504
REMARK  206  A    between atoms: _509  and  _511
REMARK  207  A    between atoms: _511  and  _512
REMARK  208  A    between atoms: _511  and  _514
REMARK  209  A    between atoms: _517  and  _519
REMARK  210  A    between atoms: _519  and  _520
REMARK  211  A    between atoms: _519  and  _522
REMARK  212  A    between atoms: _522  and  _523
REMARK  213  A    between atoms: _528  and  _530
REMARK  214  A    between atoms: _530  and  _531
REMARK  215  A    between atoms: _530  and  _533
REMARK  216  A    between atoms: _533  and  _534
REMARK  217  A    between atoms: _537  and  _539
REMARK  218  A    between atoms: _539  and  _540
REMARK  219  A    between atoms: _539  and  _542
REMARK  220  A    between atoms: _542  and  _543
REMARK  221  A    between atoms: _546  and  _548
REMARK  222  A    between atoms: _548  and  _549
REMARK  223  A    between atoms: _551  and  _553
REMARK  224  A    between atoms: _553  and  _554
REMARK  225  A    between atoms: _553  and  _556
REMARK  226  A    between atoms: _556  and  _557
REMARK  227  A    between atoms: _557  and  _558
REMARK  228  A    between atoms: _558  and  _559
REMARK                            x       y       z     vdW  Elec       q    Type
REMARK                         _______ _______ _______ _____ _____    ______ ____
ROOT
ATOM      1  O   HOH     1      18.048  20.887  16.818  0.00  0.00    +0.000 OA
ENDROOT
TORSDOF 0
REMARK  Name = ../refined-set-2016/3d1y/3d1y_pocket.pdb
REMARK  228 active torsions:
REMARK  status: ('A' for Active; 'I' for Inactive)
REMARK    1  A    between atoms: _1  and  _3
REMARK    2  A    between atoms: _3  and  _4
REMARK    3  A    between atoms: _3  and  _6
REMARK    4  A    between atoms: _6  and  _7
REMARK    5  A    between atoms: _7  and  _8
REMARK    6  A    between atoms: _8  and  _9
REMARK    7  A    between atoms: _18  and  _20
REMARK    8  A    between atoms: _20  and  _21
REMARK    9  A    between atoms: _20  and  _23
REMARK   10  A    between atoms: _23  and  _24
REMARK   11  A    between atoms: _27  and  _29
REMARK   12  A    between atoms: _29  and  _30
REMARK   13  A    between atoms: _29  and  _32
REMARK   14  A    between atoms: _32  and  _33
REMARK   15  A    between atoms: _36  and  _38
REMARK   16  A    between atoms: _38  and  _39
REMARK   17  A    between atoms: _38  and  _41
REMARK   18  A    between atoms: _41  and  _42
REMARK   19  A    between atoms: _45  and  _47
REMARK   20  A    between atoms: _47  and  _48
REMARK   21  A    between atoms: _47  and  _50
REMARK   22  A    between atoms: _50  and  _51
REMARK   23  A    between atoms: _54  and  _56
REMARK   24  A    between atoms: _56  and  _57
REMARK   25  A    between atoms: _59  and  _61
REMARK   26  A    between atoms: _61  and  _62
REMARK   27  A    between atoms: _65  and  _67
REMARK   28  A    between atoms: _67  and  _68
REMARK   29  A    between atoms: _67  and  _70
REMARK   30  A    between atoms: _70  and  _71
REMARK   31  A    between atoms: _74  and  _76
REMARK   32  A    between atoms: _76  and  _77
REMARK   33  A    between atoms: _76  and  _79
REMARK   34  A    between atoms: _79  and  _80
REMARK   35  A    between atoms: _83  and  _85
REMARK   36  A    between atoms: _85  and  _86
REMARK   37  A    between atoms: _85  and  _88
REMARK   38  A    between atoms: _88  and  _89
REMARK   39  A    between atoms: _92  and  _94
REMARK   40  A    between atoms: _94  and  _95
REMARK   41  A    between atoms: _94  and  _97
REMARK   42  A    between atoms: _100  and  _102
REMARK   43  A    between atoms: _102  and  _103
REMARK   44  A    between atoms: _102  and  _105
REMARK   45  A    between atoms: _105  and  _106
REMARK   46  A    between atoms: _106  and  _107
REMARK   47  A    between atoms: _107  and  _108
REMARK   48  A    between atoms: _108  and  _109
REMARK   49  A    between atoms: _113  and  _115
REMARK   50  A    between atoms: _115  and  _116
REMARK   51  A    between atoms: _115  and  _118
REMARK   52  A    between atoms: _118  and  _119
REMARK   53  A    between atoms: _119  and  _120
REMARK   54  A    between atoms: _122  and  _124
REMARK   55  A    between atoms: _124  and  _125
REMARK   56  A    between atoms: _124  and  _127
REMARK   57  A    between atoms: _127  and  _128
REMARK   58  A    between atoms: _131  and  _133
REMARK   59  A    between atoms: _133  and  _134
REMARK   60  A    between atoms: _136  and  _138
REMARK   61  A    between atoms: _138  and  _139
REMARK   62  A    between atoms: _141  and  _143
REMARK   63  A    between atoms: _143  and  _144
REMARK   64  A    between atoms: _143  and  _146
REMARK   65  A    between atoms: _146  and  _147
REMARK   66  A    between atoms: _150  and  _152
REMARK   67  A    between atoms: _152  and  _153
REMARK   68  A    between atoms: _155  and  _157
REMARK   69  A    between atoms: _157  and  _158
REMARK   70  A    between atoms: _160  and  _162
REMARK   71  A    between atoms: _162  and  _163
REMARK   72  A    between atoms: _162  and  _165
REMARK   73  A    between atoms: _165  and  _166
REMARK   74  A    between atoms: _172  and  _174
REMARK   75  A    between atoms: _174  and  _175
REMARK   76  A    between atoms: _174  and  _177
REMARK   77  A    between atoms: _180  and  _182
REMARK   78  A    between atoms: _182  and  _183
REMARK   79  A    between atoms: _182  and  _185
REMARK   80  A    between atoms: _188  and  _190
REMARK   81  A    between atoms: _190  and  _191
REMARK   82  A    between atoms: _190  and  _193
REMARK   83  A    between atoms: _193  and  _194
REMARK   84  A    between atoms: _198  and  _199
REMARK   85  A    between atoms: _204  and  _206
REMARK   86  A    between atoms: _206  and  _207
REMARK   87  A    between atoms: _206  and  _209
REMARK   88  A    between atoms: _209  and  _210
REMARK   89  A    between atoms: _214  and  _215
REMARK   90  A    between atoms: _220  and  _222
REMARK   91  A    between atoms: _222  and  _223
REMARK   92  A    between atoms: _222  and  _225
REMARK   93  A    between atoms: _228  and  _230
REMARK   94  A    between atoms: _230  and  _231
REMARK   95  A    between atoms: _230  and  _233
REMARK   96  A    between atoms: _233  and  _234
REMARK   97  A    between atoms: _239  and  _241
REMARK   98  A    between atoms: _241  and  _242
REMARK   99  A    between atoms: _241  and  _244
REMARK  100  A    between atoms: _244  and  _245
REMARK  101  A    between atoms: _248  and  _250
REMARK  102  A    between atoms: _250  and  _251
REMARK  103  A    between atoms: _250  and  _253
REMARK  104  A    between atoms: _253  and  _254
REMARK  105  A    between atoms: _257  and  _259
REMARK  106  A    between atoms: _259  and  _260
REMARK  107  A    between atoms: _262  and  _264
REMARK  108  A    between atoms: _264  and  _265
REMARK  109  A    between atoms: _264  and  _267
REMARK  110  A    between atoms: _267  and  _268
REMARK  111  A    between atoms: _268  and  _269
REMARK  112  A    between atoms: _269  and  _270
REMARK  113  A    between atoms: _279  and  _281
REMARK  114  A    between atoms: _281  and  _282
REMARK  115  A    between atoms: _281  and  _284
REMARK  116  A    between atoms: _284  and  _285
REMARK  117  A    between atoms: _290  and  _292
REMARK  118  A    between atoms: _292  and  _293
REMARK  119  A    between atoms: _292  and  _295
REMARK  120  A    between atoms: _295  and  _296
REMARK  121  A    between atoms: _296  and  _297
REMARK  122  A    between atoms: _297  and  _298
REMARK  123  A    between atoms: _307  and  _309
REMARK  124  A    between atoms: _309  and  _310
REMARK  125  A    between atoms: _309  and  _312
REMARK  126  A    between atoms: _312  and  _313
REMARK  127  A    between atoms: _316  and  _318
REMARK  128  A    between atoms: _318  and  _319
REMARK  129  A    between atoms: _318  and  _321
REMARK  130  A    between atoms: _321  and  _322
REMARK  131  A    between atoms: _325  and  _327
REMARK  132  A    between atoms: _327  and  _328
REMARK  133  A    between atoms: _327  and  _330
REMARK  134  A    between atoms: _330  and  _331
REMARK  135  A    between atoms: _334  and  _336
REMARK  136  A    between atoms: _336  and  _337
REMARK  137  A    between atoms: _336  and  _339
REMARK  138  A    between atoms: _339  and  _340
REMARK  139  A    between atoms: _343  and  _345
REMARK  140  A    between atoms: _345  and  _346
REMARK  141  A    between atoms: _348  and  _350
REMARK  142  A    between atoms: _350  and  _351
REMARK  143  A    between atoms: _354  and  _356
REMARK  144  A    between atoms: _356  and  _357
REMARK  145  A    between atoms: _356  and  _359
REMARK  146  A    between atoms: _359  and  _360
REMARK  147  A    between atoms: _363  and  _365
REMARK  148  A    between atoms: _365  and  _366
REMARK  149  A    between atoms: _365  and  _368
REMARK  150  A    between atoms: _368  and  _369
REMARK  151  A    between atoms: _372  and  _374
REMARK  152  A    between atoms: _374  and  _375
REMARK  153  A    between atoms: _374  and  _377
REMARK  154  A    between atoms: _377  and  _378
REMARK  155  A    between atoms: _381  and  _383
REMARK  156  A    between atoms: _383  and  _384
REMARK  157  A    between atoms: _383  and  _386
REMARK  158  A    between atoms: _389  and  _391
REMARK  159  A    between atoms: _391  and  _392
REMARK  160  A    between atoms: _391  and  _394
REMARK  161  A    between atoms: _394  and  _395
REMARK  162  A    between atoms: _395  and  _396
REMARK  163  A    between atoms: _396  and  _397
REMARK  164  A    between atoms: _397  and  _398
REMARK  165  A    between atoms: _402  and  _404
REMARK  166  A    between atoms: _404  and  _405
REMARK  167  A    between atoms: _404  and  _407
REMARK  168  A    between atoms: _407  and  _408
REMARK  169  A    between atoms: _408  and  _409
REMARK  170  A    between atoms: _411  and  _413
REMARK  171  A    between atoms: _413  and  _414
REMARK  172  A    between atoms: _413  and  _416
REMARK  173  A    between atoms: _416  and  _417
REMARK  174  A    between atoms: _420  and  _422
REMARK  175  A    between atoms: _422  and  _423
REMARK  176  A    between atoms: _425  and  _427
REMARK  177  A    between atoms: _427  and  _428
REMARK  178  A    between atoms: _430  and  _432
REMARK  179  A    between atoms: _432  and  _433
REMARK  180  A    between atoms: _432  and  _435
REMARK  181  A    between atoms: _435  and  _436
REMARK  182  A    between atoms: _439  and  _441
REMARK  183  A    between atoms: _441  and  _442
REMARK  184  A    between atoms: _444  and  _446
REMARK  185  A    between atoms: _446  and  _447
REMARK  186  A    between atoms: _449  and  _451
REMARK  187  A    between atoms: _451  and  _452
REMARK  188  A    between atoms: _451  and  _454
REMARK  189  A    between atoms: _454  and  _455
REMARK  190  A    between atoms: _461  and  _463
REMARK  191  A    between atoms: _463  and  _464
REMARK  192  A    between atoms: _463  and  _466
REMARK  193  A    between atoms: _469  and  _471
REMARK  194  A    between atoms: _471  and  _472
REMARK  195  A    between atoms: _471  and  _474
REMARK  196  A    between atoms: _477  and  _479
REMARK  197  A    between atoms: _479  and  _480
REMARK  198  A    between atoms: _479  and  _482
REMARK  199  A    between atoms: _482  and  _483
REMARK  200  A    between atoms: _487  and  _488
REMARK  201  A    between atoms: _493  and  _495
REMARK  202  A    between atoms: _495  and  _496
REMARK  203  A    between atoms: _495  and  _498
REMARK  204  A    between atoms: _498  and  _499
REMARK  205  A    between atoms: _503  and  _504
REMARK  206  A    between atoms: _509  and  _511
REMARK  207  A    between atoms: _511  and  _512
REMARK  208  A    between atoms: _511  and  _514
REMARK  209  A    between atoms: _517  and  _519
REMARK  210  A    between atoms: _519  and  _520
REMARK  211  A    between atoms: _519  and  _522
REMARK  212  A    between atoms: _522  and  _523
REMARK  213  A    between atoms: _528  and  _530
REMARK  214  A    between atoms: _530  and  _531
REMARK  215  A    between atoms: _530  and  _533
REMARK  216  A    between atoms: _533  and  _534
REMARK  217  A    between atoms: _537  and  _539
REMARK  218  A    between atoms: _539  and  _540
REMARK  219  A    between atoms: _539  and  _542
REMARK  220  A    between atoms: _542  and  _543
REMARK  221  A    between atoms: _546  and  _548
REMARK  222  A    between atoms: _548  and  _549
REMARK  223  A    between atoms: _551  and  _553
REMARK  224  A    between atoms: _553  and  _554
REMARK  225  A    between atoms: _553  and  _556
REMARK  226  A    between atoms: _556  and  _557
REMARK  227  A    between atoms: _557  and  _558
REMARK  228  A    between atoms: _558  and  _559
REMARK                            x       y       z     vdW  Elec       q    Type
REMARK                         _______ _______ _______ _____ _____    ______ ____
ROOT
ATOM      1  O   HOH     1      25.396  26.166  15.821  0.00  0.00    +0.000 OA
ENDROOT
TORSDOF 0
REMARK  Name = ../refined-set-2016/3d1y/3d1y_pocket.pdb
REMARK  228 active torsions:
REMARK  status: ('A' for Active; 'I' for Inactive)
REMARK    1  A    between atoms: _1  and  _3
REMARK    2  A    between atoms: _3  and  _4
REMARK    3  A    between atoms: _3  and  _6
REMARK    4  A    between atoms: _6  and  _7
REMARK    5  A    between atoms: _7  and  _8
REMARK    6  A    between atoms: _8  and  _9
REMARK    7  A    between atoms: _18  and  _20
REMARK    8  A    between atoms: _20  and  _21
REMARK    9  A    between atoms: _20  and  _23
REMARK   10  A    between atoms: _23  and  _24
REMARK   11  A    between atoms: _27  and  _29
REMARK   12  A    between atoms: _29  and  _30
REMARK   13  A    between atoms: _29  and  _32
REMARK   14  A    between atoms: _32  and  _33
REMARK   15  A    between atoms: _36  and  _38
REMARK   16  A    between atoms: _38  and  _39
REMARK   17  A    between atoms: _38  and  _41
REMARK   18  A    between atoms: _41  and  _42
REMARK   19  A    between atoms: _45  and  _47
REMARK   20  A    between atoms: _47  and  _48
REMARK   21  A    between atoms: _47  and  _50
REMARK   22  A    between atoms: _50  and  _51
REMARK   23  A    between atoms: _54  and  _56
REMARK   24  A    between atoms: _56  and  _57
REMARK   25  A    between atoms: _59  and  _61
REMARK   26  A    between atoms: _61  and  _62
REMARK   27  A    between atoms: _65  and  _67
REMARK   28  A    between atoms: _67  and  _68
REMARK   29  A    between atoms: _67  and  _70
REMARK   30  A    between atoms: _70  and  _71
REMARK   31  A    between atoms: _74  and  _76
REMARK   32  A    between atoms: _76  and  _77
REMARK   33  A    between atoms: _76  and  _79
REMARK   34  A    between atoms: _79  and  _80
REMARK   35  A    between atoms: _83  and  _85
REMARK   36  A    between atoms: _85  and  _86
REMARK   37  A    between atoms: _85  and  _88
REMARK   38  A    between atoms: _88  and  _89
REMARK   39  A    between atoms: _92  and  _94
REMARK   40  A    between atoms: _94  and  _95
REMARK   41  A    between atoms: _94  and  _97
REMARK   42  A    between atoms: _100  and  _102
REMARK   43  A    between atoms: _102  and  _103
REMARK   44  A    between atoms: _102  and  _105
REMARK   45  A    between atoms: _105  and  _106
REMARK   46  A    between atoms: _106  and  _107
REMARK   47  A    between atoms: _107  and  _108
REMARK   48  A    between atoms: _108  and  _109
REMARK   49  A    between atoms: _113  and  _115
REMARK   50  A    between atoms: _115  and  _116
REMARK   51  A    between atoms: _115  and  _118
REMARK   52  A    between atoms: _118  and  _119
REMARK   53  A    between atoms: _119  and  _120
REMARK   54  A    between atoms: _122  and  _124
REMARK   55  A    between atoms: _124  and  _125
REMARK   56  A    between atoms: _124  and  _127
REMARK   57  A    between atoms: _127  and  _128
REMARK   58  A    between atoms: _131  and  _133
REMARK   59  A    between atoms: _133  and  _134
REMARK   60  A    between atoms: _136  and  _138
REMARK   61  A    between atoms: _138  and  _139
REMARK   62  A    between atoms: _141  and  _143
REMARK   63  A    between atoms: _143  and  _144
REMARK   64  A    between atoms: _143  and  _146
REMARK   65  A    between atoms: _146  and  _147
REMARK   66  A    between atoms: _150  and  _152
REMARK   67  A    between atoms: _152  and  _153
REMARK   68  A    between atoms: _155  and  _157
REMARK   69  A    between atoms: _157  and  _158
REMARK   70  A    between atoms: _160  and  _162
REMARK   71  A    between atoms: _162  and  _163
REMARK   72  A    between atoms: _162  and  _165
REMARK   73  A    between atoms: _165  and  _166
REMARK   74  A    between atoms: _172  and  _174
REMARK   75  A    between atoms: _174  and  _175
REMARK   76  A    between atoms: _174  and  _177
REMARK   77  A    between atoms: _180  and  _182
REMARK   78  A    between atoms: _182  and  _183
REMARK   79  A    between atoms: _182  and  _185
REMARK   80  A    between atoms: _188  and  _190
REMARK   81  A    between atoms: _190  and  _191
REMARK   82  A    between atoms: _190  and  _193
REMARK   83  A    between atoms: _193  and  _194
REMARK   84  A    between atoms: _198  and  _199
REMARK   85  A    between atoms: _204  and  _206
REMARK   86  A    between atoms: _206  and  _207
REMARK   87  A    between atoms: _206  and  _209
REMARK   88  A    between atoms: _209  and  _210
REMARK   89  A    between atoms: _214  and  _215
REMARK   90  A    between atoms: _220  and  _222
REMARK   91  A    between atoms: _222  and  _223
REMARK   92  A    between atoms: _222  and  _225
REMARK   93  A    between atoms: _228  and  _230
REMARK   94  A    between atoms: _230  and  _231
REMARK   95  A    between atoms: _230  and  _233
REMARK   96  A    between atoms: _233  and  _234
REMARK   97  A    between atoms: _239  and  _241
REMARK   98  A    between atoms: _241  and  _242
REMARK   99  A    between atoms: _241  and  _244
REMARK  100  A    between atoms: _244  and  _245
REMARK  101  A    between atoms: _248  and  _250
REMARK  102  A    between atoms: _250  and  _251
REMARK  103  A    between atoms: _250  and  _253
REMARK  104  A    between atoms: _253  and  _254
REMARK  105  A    between atoms: _257  and  _259
REMARK  106  A    between atoms: _259  and  _260
REMARK  107  A    between atoms: _262  and  _264
REMARK  108  A    between atoms: _264  and  _265
REMARK  109  A    between atoms: _264  and  _267
REMARK  110  A    between atoms: _267  and  _268
REMARK  111  A    between atoms: _268  and  _269
REMARK  112  A    between atoms: _269  and  _270
REMARK  113  A    between atoms: _279  and  _281
REMARK  114  A    between atoms: _281  and  _282
REMARK  115  A    between atoms: _281  and  _284
REMARK  116  A    between atoms: _284  and  _285
REMARK  117  A    between atoms: _290  and  _292
REMARK  118  A    between atoms: _292  and  _293
REMARK  119  A    between atoms: _292  and  _295
REMARK  120  A    between atoms: _295  and  _296
REMARK  121  A    between atoms: _296  and  _297
REMARK  122  A    between atoms: _297  and  _298
REMARK  123  A    between atoms: _307  and  _309
REMARK  124  A    between atoms: _309  and  _310
REMARK  125  A    between atoms: _309  and  _312
REMARK  126  A    between atoms: _312  and  _313
REMARK  127  A    between atoms: _316  and  _318
REMARK  128  A    between atoms: _318  and  _319
REMARK  129  A    between atoms: _318  and  _321
REMARK  130  A    between atoms: _321  and  _322
REMARK  131  A    between atoms: _325  and  _327
REMARK  132  A    between atoms: _327  and  _328
REMARK  133  A    between atoms: _327  and  _330
REMARK  134  A    between atoms: _330  and  _331
REMARK  135  A    between atoms: _334  and  _336
REMARK  136  A    between atoms: _336  and  _337
REMARK  137  A    between atoms: _336  and  _339
REMARK  138  A    between atoms: _339  and  _340
REMARK  139  A    between atoms: _343  and  _345
REMARK  140  A    between atoms: _345  and  _346
REMARK  141  A    between atoms: _348  and  _350
REMARK  142  A    between atoms: _350  and  _351
REMARK  143  A    between atoms: _354  and  _356
REMARK  144  A    between atoms: _356  and  _357
REMARK  145  A    between atoms: _356  and  _359
REMARK  146  A    between atoms: _359  and  _360
REMARK  147  A    between atoms: _363  and  _365
REMARK  148  A    between atoms: _365  and  _366
REMARK  149  A    between atoms: _365  and  _368
REMARK  150  A    between atoms: _368  and  _369
REMARK  151  A    between atoms: _372  and  _374
REMARK  152  A    between atoms: _374  and  _375
REMARK  153  A    between atoms: _374  and  _377
REMARK  154  A    between atoms: _377  and  _378
REMARK  155  A    between atoms: _381  and  _383
REMARK  156  A    between atoms: _383  and  _384
REMARK  157  A    between atoms: _383  and  _386
REMARK  158  A    between atoms: _389  and  _391
REMARK  159  A    between atoms: _391  and  _392
REMARK  160  A    between atoms: _391  and  _394
REMARK  161  A    between atoms: _394  and  _395
REMARK  162  A    between atoms: _395  and  _396
REMARK  163  A    between atoms: _396  and  _397
REMARK  164  A    between atoms: _397  and  _398
REMARK  165  A    between atoms: _402  and  _404
REMARK  166  A    between atoms: _404  and  _405
REMARK  167  A    between atoms: _404  and  _407
REMARK  168  A    between atoms: _407  and  _408
REMARK  169  A    between atoms: _408  and  _409
REMARK  170  A    between atoms: _411  and  _413
REMARK  171  A    between atoms: _413  and  _414
REMARK  172  A    between atoms: _413  and  _416
REMARK  173  A    between atoms: _416  and  _417
REMARK  174  A    between atoms: _420  and  _422
REMARK  175  A    between atoms: _422  and  _423
REMARK  176  A    between atoms: _425  and  _427
REMARK  177  A    between atoms: _427  and  _428
REMARK  178  A    between atoms: _430  and  _432
REMARK  179  A    between atoms: _432  and  _433
REMARK  180  A    between atoms: _432  and  _435
REMARK  181  A    between atoms: _435  and  _436
REMARK  182  A    between atoms: _439  and  _441
REMARK  183  A    between atoms: _441  and  _442
REMARK  184  A    between atoms: _444  and  _446
REMARK  185  A    between atoms: _446  and  _447
REMARK  186  A    between atoms: _449  and  _451
REMARK  187  A    between atoms: _451  and  _452
REMARK  188  A    between atoms: _451  and  _454
REMARK  189  A    between atoms: _454  and  _455
REMARK  190  A    between atoms: _461  and  _463
REMARK  191  A    between atoms: _463  and  _464
REMARK  192  A    between atoms: _463  and  _466
REMARK  193  A    between atoms: _469  and  _471
REMARK  194  A    between atoms: _471  and  _472
REMARK  195  A    between atoms: _471  and  _474
REMARK  196  A    between atoms: _477  and  _479
REMARK  197  A    between atoms: _479  and  _480
REMARK  198  A    between atoms: _479  and  _482
REMARK  199  A    between atoms: _482  and  _483
REMARK  200  A    between atoms: _487  and  _488
REMARK  201  A    between atoms: _493  and  _495
REMARK  202  A    between atoms: _495  and  _496
REMARK  203  A    between atoms: _495  and  _498
REMARK  204  A    between atoms: _498  and  _499
REMARK  205  A    between atoms: _503  and  _504
REMARK  206  A    between atoms: _509  and  _511
REMARK  207  A    between atoms: _511  and  _512
REMARK  208  A    between atoms: _511  and  _514
REMARK  209  A    between atoms: _517  and  _519
REMARK  210  A    between atoms: _519  and  _520
REMARK  211  A    between atoms: _519  and  _522
REMARK  212  A    between atoms: _522  and  _523
REMARK  213  A    between atoms: _528  and  _530
REMARK  214  A    between atoms: _530  and  _531
REMARK  215  A    between atoms: _530  and  _533
REMARK  216  A    between atoms: _533  and  _534
REMARK  217  A    between atoms: _537  and  _539
REMARK  218  A    between atoms: _539  and  _540
REMARK  219  A    between atoms: _539  and  _542
REMARK  220  A    between atoms: _542  and  _543
REMARK  221  A    between atoms: _546  and  _548
REMARK  222  A    between atoms: _548  and  _549
REMARK  223  A    between atoms: _551  and  _553
REMARK  224  A    between atoms: _553  and  _554
REMARK  225  A    between atoms: _553  and  _556
REMARK  226  A    between atoms: _556  and  _557
REMARK  227  A    between atoms: _557  and  _558
REMARK  228  A    between atoms: _558  and  _559
REMARK                            x       y       z     vdW  Elec       q    Type
REMARK                         _______ _______ _______ _____ _____    ______ ____
ROOT
ATOM      1  O   HOH     1      22.884  33.987  12.254  0.00  0.00    +0.000 OA
ENDROOT
TORSDOF 0
REMARK  Name = ../refined-set-2016/3d1y/3d1y_pocket.pdb
REMARK  228 active torsions:
REMARK  status: ('A' for Active; 'I' for Inactive)
REMARK    1  A    between atoms: _1  and  _3
REMARK    2  A    between atoms: _3  and  _4
REMARK    3  A    between atoms: _3  and  _6
REMARK    4  A    between atoms: _6  and  _7
REMARK    5  A    between atoms: _7  and  _8
REMARK    6  A    between atoms: _8  and  _9
REMARK    7  A    between atoms: _18  and  _20
REMARK    8  A    between atoms: _20  and  _21
REMARK    9  A    between atoms: _20  and  _23
REMARK   10  A    between atoms: _23  and  _24
REMARK   11  A    between atoms: _27  and  _29
REMARK   12  A    between atoms: _29  and  _30
REMARK   13  A    between atoms: _29  and  _32
REMARK   14  A    between atoms: _32  and  _33
REMARK   15  A    between atoms: _36  and  _38
REMARK   16  A    between atoms: _38  and  _39
REMARK   17  A    between atoms: _38  and  _41
REMARK   18  A    between atoms: _41  and  _42
REMARK   19  A    between atoms: _45  and  _47
REMARK   20  A    between atoms: _47  and  _48
REMARK   21  A    between atoms: _47  and  _50
REMARK   22  A    between atoms: _50  and  _51
REMARK   23  A    between atoms: _54  and  _56
REMARK   24  A    between atoms: _56  and  _57
REMARK   25  A    between atoms: _59  and  _61
REMARK   26  A    between atoms: _61  and  _62
REMARK   27  A    between atoms: _65  and  _67
REMARK   28  A    between atoms: _67  and  _68
REMARK   29  A    between atoms: _67  and  _70
REMARK   30  A    between atoms: _70  and  _71
REMARK   31  A    between atoms: _74  and  _76
REMARK   32  A    between atoms: _76  and  _77
REMARK   33  A    between atoms: _76  and  _79
REMARK   34  A    between atoms: _79  and  _80
REMARK   35  A    between atoms: _83  and  _85
REMARK   36  A    between atoms: _85  and  _86
REMARK   37  A    between atoms: _85  and  _88
REMARK   38  A    between atoms: _88  and  _89
REMARK   39  A    between atoms: _92  and  _94
REMARK   40  A    between atoms: _94  and  _95
REMARK   41  A    between atoms: _94  and  _97
REMARK   42  A    between atoms: _100  and  _102
REMARK   43  A    between atoms: _102  and  _103
REMARK   44  A    between atoms: _102  and  _105
REMARK   45  A    between atoms: _105  and  _106
REMARK   46  A    between atoms: _106  and  _107
REMARK   47  A    between atoms: _107  and  _108
REMARK   48  A    between atoms: _108  and  _109
REMARK   49  A    between atoms: _113  and  _115
REMARK   50  A    between atoms: _115  and  _116
REMARK   51  A    between atoms: _115  and  _118
REMARK   52  A    between atoms: _118  and  _119
REMARK   53  A    between atoms: _119  and  _120
REMARK   54  A    between atoms: _122  and  _124
REMARK   55  A    between atoms: _124  and  _125
REMARK   56  A    between atoms: _124  and  _127
REMARK   57  A    between atoms: _127  and  _128
REMARK   58  A    between atoms: _131  and  _133
REMARK   59  A    between atoms: _133  and  _134
REMARK   60  A    between atoms: _136  and  _138
REMARK   61  A    between atoms: _138  and  _139
REMARK   62  A    between atoms: _141  and  _143
REMARK   63  A    between atoms: _143  and  _144
REMARK   64  A    between atoms: _143  and  _146
REMARK   65  A    between atoms: _146  and  _147
REMARK   66  A    between atoms: _150  and  _152
REMARK   67  A    between atoms: _152  and  _153
REMARK   68  A    between atoms: _155  and  _157
REMARK   69  A    between atoms: _157  and  _158
REMARK   70  A    between atoms: _160  and  _162
REMARK   71  A    between atoms: _162  and  _163
REMARK   72  A    between atoms: _162  and  _165
REMARK   73  A    between atoms: _165  and  _166
REMARK   74  A    between atoms: _172  and  _174
REMARK   75  A    between atoms: _174  and  _175
REMARK   76  A    between atoms: _174  and  _177
REMARK   77  A    between atoms: _180  and  _182
REMARK   78  A    between atoms: _182  and  _183
REMARK   79  A    between atoms: _182  and  _185
REMARK   80  A    between atoms: _188  and  _190
REMARK   81  A    between atoms: _190  and  _191
REMARK   82  A    between atoms: _190  and  _193
REMARK   83  A    between atoms: _193  and  _194
REMARK   84  A    between atoms: _198  and  _199
REMARK   85  A    between atoms: _204  and  _206
REMARK   86  A    between atoms: _206  and  _207
REMARK   87  A    between atoms: _206  and  _209
REMARK   88  A    between atoms: _209  and  _210
REMARK   89  A    between atoms: _214  and  _215
REMARK   90  A    between atoms: _220  and  _222
REMARK   91  A    between atoms: _222  and  _223
REMARK   92  A    between atoms: _222  and  _225
REMARK   93  A    between atoms: _228  and  _230
REMARK   94  A    between atoms: _230  and  _231
REMARK   95  A    between atoms: _230  and  _233
REMARK   96  A    between atoms: _233  and  _234
REMARK   97  A    between atoms: _239  and  _241
REMARK   98  A    between atoms: _241  and  _242
REMARK   99  A    between atoms: _241  and  _244
REMARK  100  A    between atoms: _244  and  _245
REMARK  101  A    between atoms: _248  and  _250
REMARK  102  A    between atoms: _250  and  _251
REMARK  103  A    between atoms: _250  and  _253
REMARK  104  A    between atoms: _253  and  _254
REMARK  105  A    between atoms: _257  and  _259
REMARK  106  A    between atoms: _259  and  _260
REMARK  107  A    between atoms: _262  and  _264
REMARK  108  A    between atoms: _264  and  _265
REMARK  109  A    between atoms: _264  and  _267
REMARK  110  A    between atoms: _267  and  _268
REMARK  111  A    between atoms: _268  and  _269
REMARK  112  A    between atoms: _269  and  _270
REMARK  113  A    between atoms: _279  and  _281
REMARK  114  A    between atoms: _281  and  _282
REMARK  115  A    between atoms: _281  and  _284
REMARK  116  A    between atoms: _284  and  _285
REMARK  117  A    between atoms: _290  and  _292
REMARK  118  A    between atoms: _292  and  _293
REMARK  119  A    between atoms: _292  and  _295
REMARK  120  A    between atoms: _295  and  _296
REMARK  121  A    between atoms: _296  and  _297
REMARK  122  A    between atoms: _297  and  _298
REMARK  123  A    between atoms: _307  and  _309
REMARK  124  A    between atoms: _309  and  _310
REMARK  125  A    between atoms: _309  and  _312
REMARK  126  A    between atoms: _312  and  _313
REMARK  127  A    between atoms: _316  and  _318
REMARK  128  A    between atoms: _318  and  _319
REMARK  129  A    between atoms: _318  and  _321
REMARK  130  A    between atoms: _321  and  _322
REMARK  131  A    between atoms: _325  and  _327
REMARK  132  A    between atoms: _327  and  _328
REMARK  133  A    between atoms: _327  and  _330
REMARK  134  A    between atoms: _330  and  _331
REMARK  135  A    between atoms: _334  and  _336
REMARK  136  A    between atoms: _336  and  _337
REMARK  137  A    between atoms: _336  and  _339
REMARK  138  A    between atoms: _339  and  _340
REMARK  139  A    between atoms: _343  and  _345
REMARK  140  A    between atoms: _345  and  _346
REMARK  141  A    between atoms: _348  and  _350
REMARK  142  A    between atoms: _350  and  _351
REMARK  143  A    between atoms: _354  and  _356
REMARK  144  A    between atoms: _356  and  _357
REMARK  145  A    between atoms: _356  and  _359
REMARK  146  A    between atoms: _359  and  _360
REMARK  147  A    between atoms: _363  and  _365
REMARK  148  A    between atoms: _365  and  _366
REMARK  149  A    between atoms: _365  and  _368
REMARK  150  A    between atoms: _368  and  _369
REMARK  151  A    between atoms: _372  and  _374
REMARK  152  A    between atoms: _374  and  _375
REMARK  153  A    between atoms: _374  and  _377
REMARK  154  A    between atoms: _377  and  _378
REMARK  155  A    between atoms: _381  and  _383
REMARK  156  A    between atoms: _383  and  _384
REMARK  157  A    between atoms: _383  and  _386
REMARK  158  A    between atoms: _389  and  _391
REMARK  159  A    between atoms: _391  and  _392
REMARK  160  A    between atoms: _391  and  _394
REMARK  161  A    between atoms: _394  and  _395
REMARK  162  A    between atoms: _395  and  _396
REMARK  163  A    between atoms: _396  and  _397
REMARK  164  A    between atoms: _397  and  _398
REMARK  165  A    between atoms: _402  and  _404
REMARK  166  A    between atoms: _404  and  _405
REMARK  167  A    between atoms: _404  and  _407
REMARK  168  A    between atoms: _407  and  _408
REMARK  169  A    between atoms: _408  and  _409
REMARK  170  A    between atoms: _411  and  _413
REMARK  171  A    between atoms: _413  and  _414
REMARK  172  A    between atoms: _413  and  _416
REMARK  173  A    between atoms: _416  and  _417
REMARK  174  A    between atoms: _420  and  _422
REMARK  175  A    between atoms: _422  and  _423
REMARK  176  A    between atoms: _425  and  _427
REMARK  177  A    between atoms: _427  and  _428
REMARK  178  A    between atoms: _430  and  _432
REMARK  179  A    between atoms: _432  and  _433
REMARK  180  A    between atoms: _432  and  _435
REMARK  181  A    between atoms: _435  and  _436
REMARK  182  A    between atoms: _439  and  _441
REMARK  183  A    between atoms: _441  and  _442
REMARK  184  A    between atoms: _444  and  _446
REMARK  185  A    between atoms: _446  and  _447
REMARK  186  A    between atoms: _449  and  _451
REMARK  187  A    between atoms: _451  and  _452
REMARK  188  A    between atoms: _451  and  _454
REMARK  189  A    between atoms: _454  and  _455
REMARK  190  A    between atoms: _461  and  _463
REMARK  191  A    between atoms: _463  and  _464
REMARK  192  A    between atoms: _463  and  _466
REMARK  193  A    between atoms: _469  and  _471
REMARK  194  A    between atoms: _471  and  _472
REMARK  195  A    between atoms: _471  and  _474
REMARK  196  A    between atoms: _477  and  _479
REMARK  197  A    between atoms: _479  and  _480
REMARK  198  A    between atoms: _479  and  _482
REMARK  199  A    between atoms: _482  and  _483
REMARK  200  A    between atoms: _487  and  _488
REMARK  201  A    between atoms: _493  and  _495
REMARK  202  A    between atoms: _495  and  _496
REMARK  203  A    between atoms: _495  and  _498
REMARK  204  A    between atoms: _498  and  _499
REMARK  205  A    between atoms: _503  and  _504
REMARK  206  A    between atoms: _509  and  _511
REMARK  207  A    between atoms: _511  and  _512
REMARK  208  A    between atoms: _511  and  _514
REMARK  209  A    between atoms: _517  and  _519
REMARK  210  A    between atoms: _519  and  _520
REMARK  211  A    between atoms: _519  and  _522
REMARK  212  A    between atoms: _522  and  _523
REMARK  213  A    between atoms: _528  and  _530
REMARK  214  A    between atoms: _530  and  _531
REMARK  215  A    between atoms: _530  and  _533
REMARK  216  A    between atoms: _533  and  _534
REMARK  217  A    between atoms: _537  and  _539
REMARK  218  A    between atoms: _539  and  _540
REMARK  219  A    between atoms: _539  and  _542
REMARK  220  A    between atoms: _542  and  _543
REMARK  221  A    between atoms: _546  and  _548
REMARK  222  A    between atoms: _548  and  _549
REMARK  223  A    between atoms: _551  and  _553
REMARK  224  A    between atoms: _553  and  _554
REMARK  225  A    between atoms: _553  and  _556
REMARK  226  A    between atoms: _556  and  _557
REMARK  227  A    between atoms: _557  and  _558
REMARK  228  A    between atoms: _558  and  _559
REMARK                            x       y       z     vdW  Elec       q    Type
REMARK                         _______ _______ _______ _____ _____    ______ ____
ROOT
ATOM      1  O   HOH     1      21.389  35.288  17.578  0.00  0.00    +0.000 OA
ENDROOT
TORSDOF 0
REMARK  Name = ../refined-set-2016/3d1y/3d1y_pocket.pdb
REMARK  228 active torsions:
REMARK  status: ('A' for Active; 'I' for Inactive)
REMARK    1  A    between atoms: _1  and  _3
REMARK    2  A    between atoms: _3  and  _4
REMARK    3  A    between atoms: _3  and  _6
REMARK    4  A    between atoms: _6  and  _7
REMARK    5  A    between atoms: _7  and  _8
REMARK    6  A    between atoms: _8  and  _9
REMARK    7  A    between atoms: _18  and  _20
REMARK    8  A    between atoms: _20  and  _21
REMARK    9  A    between atoms: _20  and  _23
REMARK   10  A    between atoms: _23  and  _24
REMARK   11  A    between atoms: _27  and  _29
REMARK   12  A    between atoms: _29  and  _30
REMARK   13  A    between atoms: _29  and  _32
REMARK   14  A    between atoms: _32  and  _33
REMARK   15  A    between atoms: _36  and  _38
REMARK   16  A    between atoms: _38  and  _39
REMARK   17  A    between atoms: _38  and  _41
REMARK   18  A    between atoms: _41  and  _42
REMARK   19  A    between atoms: _45  and  _47
REMARK   20  A    between atoms: _47  and  _48
REMARK   21  A    between atoms: _47  and  _50
REMARK   22  A    between atoms: _50  and  _51
REMARK   23  A    between atoms: _54  and  _56
REMARK   24  A    between atoms: _56  and  _57
REMARK   25  A    between atoms: _59  and  _61
REMARK   26  A    between atoms: _61  and  _62
REMARK   27  A    between atoms: _65  and  _67
REMARK   28  A    between atoms: _67  and  _68
REMARK   29  A    between atoms: _67  and  _70
REMARK   30  A    between atoms: _70  and  _71
REMARK   31  A    between atoms: _74  and  _76
REMARK   32  A    between atoms: _76  and  _77
REMARK   33  A    between atoms: _76  and  _79
REMARK   34  A    between atoms: _79  and  _80
REMARK   35  A    between atoms: _83  and  _85
REMARK   36  A    between atoms: _85  and  _86
REMARK   37  A    between atoms: _85  and  _88
REMARK   38  A    between atoms: _88  and  _89
REMARK   39  A    between atoms: _92  and  _94
REMARK   40  A    between atoms: _94  and  _95
REMARK   41  A    between atoms: _94  and  _97
REMARK   42  A    between atoms: _100  and  _102
REMARK   43  A    between atoms: _102  and  _103
REMARK   44  A    between atoms: _102  and  _105
REMARK   45  A    between atoms: _105  and  _106
REMARK   46  A    between atoms: _106  and  _107
REMARK   47  A    between atoms: _107  and  _108
REMARK   48  A    between atoms: _108  and  _109
REMARK   49  A    between atoms: _113  and  _115
REMARK   50  A    between atoms: _115  and  _116
REMARK   51  A    between atoms: _115  and  _118
REMARK   52  A    between atoms: _118  and  _119
REMARK   53  A    between atoms: _119  and  _120
REMARK   54  A    between atoms: _122  and  _124
REMARK   55  A    between atoms: _124  and  _125
REMARK   56  A    between atoms: _124  and  _127
REMARK   57  A    between atoms: _127  and  _128
REMARK   58  A    between atoms: _131  and  _133
REMARK   59  A    between atoms: _133  and  _134
REMARK   60  A    between atoms: _136  and  _138
REMARK   61  A    between atoms: _138  and  _139
REMARK   62  A    between atoms: _141  and  _143
REMARK   63  A    between atoms: _143  and  _144
REMARK   64  A    between atoms: _143  and  _146
REMARK   65  A    between atoms: _146  and  _147
REMARK   66  A    between atoms: _150  and  _152
REMARK   67  A    between atoms: _152  and  _153
REMARK   68  A    between atoms: _155  and  _157
REMARK   69  A    between atoms: _157  and  _158
REMARK   70  A    between atoms: _160  and  _162
REMARK   71  A    between atoms: _162  and  _163
REMARK   72  A    between atoms: _162  and  _165
REMARK   73  A    between atoms: _165  and  _166
REMARK   74  A    between atoms: _172  and  _174
REMARK   75  A    between atoms: _174  and  _175
REMARK   76  A    between atoms: _174  and  _177
REMARK   77  A    between atoms: _180  and  _182
REMARK   78  A    between atoms: _182  and  _183
REMARK   79  A    between atoms: _182  and  _185
REMARK   80  A    between atoms: _188  and  _190
REMARK   81  A    between atoms: _190  and  _191
REMARK   82  A    between atoms: _190  and  _193
REMARK   83  A    between atoms: _193  and  _194
REMARK   84  A    between atoms: _198  and  _199
REMARK   85  A    between atoms: _204  and  _206
REMARK   86  A    between atoms: _206  and  _207
REMARK   87  A    between atoms: _206  and  _209
REMARK   88  A    between atoms: _209  and  _210
REMARK   89  A    between atoms: _214  and  _215
REMARK   90  A    between atoms: _220  and  _222
REMARK   91  A    between atoms: _222  and  _223
REMARK   92  A    between atoms: _222  and  _225
REMARK   93  A    between atoms: _228  and  _230
REMARK   94  A    between atoms: _230  and  _231
REMARK   95  A    between atoms: _230  and  _233
REMARK   96  A    between atoms: _233  and  _234
REMARK   97  A    between atoms: _239  and  _241
REMARK   98  A    between atoms: _241  and  _242
REMARK   99  A    between atoms: _241  and  _244
REMARK  100  A    between atoms: _244  and  _245
REMARK  101  A    between atoms: _248  and  _250
REMARK  102  A    between atoms: _250  and  _251
REMARK  103  A    between atoms: _250  and  _253
REMARK  104  A    between atoms: _253  and  _254
REMARK  105  A    between atoms: _257  and  _259
REMARK  106  A    between atoms: _259  and  _260
REMARK  107  A    between atoms: _262  and  _264
REMARK  108  A    between atoms: _264  and  _265
REMARK  109  A    between atoms: _264  and  _267
REMARK  110  A    between atoms: _267  and  _268
REMARK  111  A    between atoms: _268  and  _269
REMARK  112  A    between atoms: _269  and  _270
REMARK  113  A    between atoms: _279  and  _281
REMARK  114  A    between atoms: _281  and  _282
REMARK  115  A    between atoms: _281  and  _284
REMARK  116  A    between atoms: _284  and  _285
REMARK  117  A    between atoms: _290  and  _292
REMARK  118  A    between atoms: _292  and  _293
REMARK  119  A    between atoms: _292  and  _295
REMARK  120  A    between atoms: _295  and  _296
REMARK  121  A    between atoms: _296  and  _297
REMARK  122  A    between atoms: _297  and  _298
REMARK  123  A    between atoms: _307  and  _309
REMARK  124  A    between atoms: _309  and  _310
REMARK  125  A    between atoms: _309  and  _312
REMARK  126  A    between atoms: _312  and  _313
REMARK  127  A    between atoms: _316  and  _318
REMARK  128  A    between atoms: _318  and  _319
REMARK  129  A    between atoms: _318  and  _321
REMARK  130  A    between atoms: _321  and  _322
REMARK  131  A    between atoms: _325  and  _327
REMARK  132  A    between atoms: _327  and  _328
REMARK  133  A    between atoms: _327  and  _330
REMARK  134  A    between atoms: _330  and  _331
REMARK  135  A    between atoms: _334  and  _336
REMARK  136  A    between atoms: _336  and  _337
REMARK  137  A    between atoms: _336  and  _339
REMARK  138  A    between atoms: _339  and  _340
REMARK  139  A    between atoms: _343  and  _345
REMARK  140  A    between atoms: _345  and  _346
REMARK  141  A    between atoms: _348  and  _350
REMARK  142  A    between atoms: _350  and  _351
REMARK  143  A    between atoms: _354  and  _356
REMARK  144  A    between atoms: _356  and  _357
REMARK  145  A    between atoms: _356  and  _359
REMARK  146  A    between atoms: _359  and  _360
REMARK  147  A    between atoms: _363  and  _365
REMARK  148  A    between atoms: _365  and  _366
REMARK  149  A    between atoms: _365  and  _368
REMARK  150  A    between atoms: _368  and  _369
REMARK  151  A    between atoms: _372  and  _374
REMARK  152  A    between atoms: _374  and  _375
REMARK  153  A    between atoms: _374  and  _377
REMARK  154  A    between atoms: _377  and  _378
REMARK  155  A    between atoms: _381  and  _383
REMARK  156  A    between atoms: _383  and  _384
REMARK  157  A    between atoms: _383  and  _386
REMARK  158  A    between atoms: _389  and  _391
REMARK  159  A    between atoms: _391  and  _392
REMARK  160  A    between atoms: _391  and  _394
REMARK  161  A    between atoms: _394  and  _395
REMARK  162  A    between atoms: _395  and  _396
REMARK  163  A    between atoms: _396  and  _397
REMARK  164  A    between atoms: _397  and  _398
REMARK  165  A    between atoms: _402  and  _404
REMARK  166  A    between atoms: _404  and  _405
REMARK  167  A    between atoms: _404  and  _407
REMARK  168  A    between atoms: _407  and  _408
REMARK  169  A    between atoms: _408  and  _409
REMARK  170  A    between atoms: _411  and  _413
REMARK  171  A    between atoms: _413  and  _414
REMARK  172  A    between atoms: _413  and  _416
REMARK  173  A    between atoms: _416  and  _417
REMARK  174  A    between atoms: _420  and  _422
REMARK  175  A    between atoms: _422  and  _423
REMARK  176  A    between atoms: _425  and  _427
REMARK  177  A    between atoms: _427  and  _428
REMARK  178  A    between atoms: _430  and  _432
REMARK  179  A    between atoms: _432  and  _433
REMARK  180  A    between atoms: _432  and  _435
REMARK  181  A    between atoms: _435  and  _436
REMARK  182  A    between atoms: _439  and  _441
REMARK  183  A    between atoms: _441  and  _442
REMARK  184  A    between atoms: _444  and  _446
REMARK  185  A    between atoms: _446  and  _447
REMARK  186  A    between atoms: _449  and  _451
REMARK  187  A    between atoms: _451  and  _452
REMARK  188  A    between atoms: _451  and  _454
REMARK  189  A    between atoms: _454  and  _455
REMARK  190  A    between atoms: _461  and  _463
REMARK  191  A    between atoms: _463  and  _464
REMARK  192  A    between atoms: _463  and  _466
REMARK  193  A    between atoms: _469  and  _471
REMARK  194  A    between atoms: _471  and  _472
REMARK  195  A    between atoms: _471  and  _474
REMARK  196  A    between atoms: _477  and  _479
REMARK  197  A    between atoms: _479  and  _480
REMARK  198  A    between atoms: _479  and  _482
REMARK  199  A    between atoms: _482  and  _483
REMARK  200  A    between atoms: _487  and  _488
REMARK  201  A    between atoms: _493  and  _495
REMARK  202  A    between atoms: _495  and  _496
REMARK  203  A    between atoms: _495  and  _498
REMARK  204  A    between atoms: _498  and  _499
REMARK  205  A    between atoms: _503  and  _504
REMARK  206  A    between atoms: _509  and  _511
REMARK  207  A    between atoms: _511  and  _512
REMARK  208  A    between atoms: _511  and  _514
REMARK  209  A    between atoms: _517  and  _519
REMARK  210  A    between atoms: _519  and  _520
REMARK  211  A    between atoms: _519  and  _522
REMARK  212  A    between atoms: _522  and  _523
REMARK  213  A    between atoms: _528  and  _530
REMARK  214  A    between atoms: _530  and  _531
REMARK  215  A    between atoms: _530  and  _533
REMARK  216  A    between atoms: _533  and  _534
REMARK  217  A    between atoms: _537  and  _539
REMARK  218  A    between atoms: _539  and  _540
REMARK  219  A    between atoms: _539  and  _542
REMARK  220  A    between atoms: _542  and  _543
REMARK  221  A    between atoms: _546  and  _548
REMARK  222  A    between atoms: _548  and  _549
REMARK  223  A    between atoms: _551  and  _553
REMARK  224  A    between atoms: _553  and  _554
REMARK  225  A    between atoms: _553  and  _556
REMARK  226  A    between atoms: _556  and  _557
REMARK  227  A    between atoms: _557  and  _558
REMARK  228  A    between atoms: _558  and  _559
REMARK                            x       y       z     vdW  Elec       q    Type
REMARK                         _______ _______ _______ _____ _____    ______ ____
ROOT
ATOM      1  O   HOH     1      29.741  24.257  18.829  0.00  0.00    +0.000 OA
ENDROOT
TORSDOF 0
REMARK  Name = ../refined-set-2016/3d1y/3d1y_pocket.pdb
REMARK  228 active torsions:
REMARK  status: ('A' for Active; 'I' for Inactive)
REMARK    1  A    between atoms: _1  and  _3
REMARK    2  A    between atoms: _3  and  _4
REMARK    3  A    between atoms: _3  and  _6
REMARK    4  A    between atoms: _6  and  _7
REMARK    5  A    between atoms: _7  and  _8
REMARK    6  A    between atoms: _8  and  _9
REMARK    7  A    between atoms: _18  and  _20
REMARK    8  A    between atoms: _20  and  _21
REMARK    9  A    between atoms: _20  and  _23
REMARK   10  A    between atoms: _23  and  _24
REMARK   11  A    between atoms: _27  and  _29
REMARK   12  A    between atoms: _29  and  _30
REMARK   13  A    between atoms: _29  and  _32
REMARK   14  A    between atoms: _32  and  _33
REMARK   15  A    between atoms: _36  and  _38
REMARK   16  A    between atoms: _38  and  _39
REMARK   17  A    between atoms: _38  and  _41
REMARK   18  A    between atoms: _41  and  _42
REMARK   19  A    between atoms: _45  and  _47
REMARK   20  A    between atoms: _47  and  _48
REMARK   21  A    between atoms: _47  and  _50
REMARK   22  A    between atoms: _50  and  _51
REMARK   23  A    between atoms: _54  and  _56
REMARK   24  A    between atoms: _56  and  _57
REMARK   25  A    between atoms: _59  and  _61
REMARK   26  A    between atoms: _61  and  _62
REMARK   27  A    between atoms: _65  and  _67
REMARK   28  A    between atoms: _67  and  _68
REMARK   29  A    between atoms: _67  and  _70
REMARK   30  A    between atoms: _70  and  _71
REMARK   31  A    between atoms: _74  and  _76
REMARK   32  A    between atoms: _76  and  _77
REMARK   33  A    between atoms: _76  and  _79
REMARK   34  A    between atoms: _79  and  _80
REMARK   35  A    between atoms: _83  and  _85
REMARK   36  A    between atoms: _85  and  _86
REMARK   37  A    between atoms: _85  and  _88
REMARK   38  A    between atoms: _88  and  _89
REMARK   39  A    between atoms: _92  and  _94
REMARK   40  A    between atoms: _94  and  _95
REMARK   41  A    between atoms: _94  and  _97
REMARK   42  A    between atoms: _100  and  _102
REMARK   43  A    between atoms: _102  and  _103
REMARK   44  A    between atoms: _102  and  _105
REMARK   45  A    between atoms: _105  and  _106
REMARK   46  A    between atoms: _106  and  _107
REMARK   47  A    between atoms: _107  and  _108
REMARK   48  A    between atoms: _108  and  _109
REMARK   49  A    between atoms: _113  and  _115
REMARK   50  A    between atoms: _115  and  _116
REMARK   51  A    between atoms: _115  and  _118
REMARK   52  A    between atoms: _118  and  _119
REMARK   53  A    between atoms: _119  and  _120
REMARK   54  A    between atoms: _122  and  _124
REMARK   55  A    between atoms: _124  and  _125
REMARK   56  A    between atoms: _124  and  _127
REMARK   57  A    between atoms: _127  and  _128
REMARK   58  A    between atoms: _131  and  _133
REMARK   59  A    between atoms: _133  and  _134
REMARK   60  A    between atoms: _136  and  _138
REMARK   61  A    between atoms: _138  and  _139
REMARK   62  A    between atoms: _141  and  _143
REMARK   63  A    between atoms: _143  and  _144
REMARK   64  A    between atoms: _143  and  _146
REMARK   65  A    between atoms: _146  and  _147
REMARK   66  A    between atoms: _150  and  _152
REMARK   67  A    between atoms: _152  and  _153
REMARK   68  A    between atoms: _155  and  _157
REMARK   69  A    between atoms: _157  and  _158
REMARK   70  A    between atoms: _160  and  _162
REMARK   71  A    between atoms: _162  and  _163
REMARK   72  A    between atoms: _162  and  _165
REMARK   73  A    between atoms: _165  and  _166
REMARK   74  A    between atoms: _172  and  _174
REMARK   75  A    between atoms: _174  and  _175
REMARK   76  A    between atoms: _174  and  _177
REMARK   77  A    between atoms: _180  and  _182
REMARK   78  A    between atoms: _182  and  _183
REMARK   79  A    between atoms: _182  and  _185
REMARK   80  A    between atoms: _188  and  _190
REMARK   81  A    between atoms: _190  and  _191
REMARK   82  A    between atoms: _190  and  _193
REMARK   83  A    between atoms: _193  and  _194
REMARK   84  A    between atoms: _198  and  _199
REMARK   85  A    between atoms: _204  and  _206
REMARK   86  A    between atoms: _206  and  _207
REMARK   87  A    between atoms: _206  and  _209
REMARK   88  A    between atoms: _209  and  _210
REMARK   89  A    between atoms: _214  and  _215
REMARK   90  A    between atoms: _220  and  _222
REMARK   91  A    between atoms: _222  and  _223
REMARK   92  A    between atoms: _222  and  _225
REMARK   93  A    between atoms: _228  and  _230
REMARK   94  A    between atoms: _230  and  _231
REMARK   95  A    between atoms: _230  and  _233
REMARK   96  A    between atoms: _233  and  _234
REMARK   97  A    between atoms: _239  and  _241
REMARK   98  A    between atoms: _241  and  _242
REMARK   99  A    between atoms: _241  and  _244
REMARK  100  A    between atoms: _244  and  _245
REMARK  101  A    between atoms: _248  and  _250
REMARK  102  A    between atoms: _250  and  _251
REMARK  103  A    between atoms: _250  and  _253
REMARK  104  A    between atoms: _253  and  _254
REMARK  105  A    between atoms: _257  and  _259
REMARK  106  A    between atoms: _259  and  _260
REMARK  107  A    between atoms: _262  and  _264
REMARK  108  A    between atoms: _264  and  _265
REMARK  109  A    between atoms: _264  and  _267
REMARK  110  A    between atoms: _267  and  _268
REMARK  111  A    between atoms: _268  and  _269
REMARK  112  A    between atoms: _269  and  _270
REMARK  113  A    between atoms: _279  and  _281
REMARK  114  A    between atoms: _281  and  _282
REMARK  115  A    between atoms: _281  and  _284
REMARK  116  A    between atoms: _284  and  _285
REMARK  117  A    between atoms: _290  and  _292
REMARK  118  A    between atoms: _292  and  _293
REMARK  119  A    between atoms: _292  and  _295
REMARK  120  A    between atoms: _295  and  _296
REMARK  121  A    between atoms: _296  and  _297
REMARK  122  A    between atoms: _297  and  _298
REMARK  123  A    between atoms: _307  and  _309
REMARK  124  A    between atoms: _309  and  _310
REMARK  125  A    between atoms: _309  and  _312
REMARK  126  A    between atoms: _312  and  _313
REMARK  127  A    between atoms: _316  and  _318
REMARK  128  A    between atoms: _318  and  _319
REMARK  129  A    between atoms: _318  and  _321
REMARK  130  A    between atoms: _321  and  _322
REMARK  131  A    between atoms: _325  and  _327
REMARK  132  A    between atoms: _327  and  _328
REMARK  133  A    between atoms: _327  and  _330
REMARK  134  A    between atoms: _330  and  _331
REMARK  135  A    between atoms: _334  and  _336
REMARK  136  A    between atoms: _336  and  _337
REMARK  137  A    between atoms: _336  and  _339
REMARK  138  A    between atoms: _339  and  _340
REMARK  139  A    between atoms: _343  and  _345
REMARK  140  A    between atoms: _345  and  _346
REMARK  141  A    between atoms: _348  and  _350
REMARK  142  A    between atoms: _350  and  _351
REMARK  143  A    between atoms: _354  and  _356
REMARK  144  A    between atoms: _356  and  _357
REMARK  145  A    between atoms: _356  and  _359
REMARK  146  A    between atoms: _359  and  _360
REMARK  147  A    between atoms: _363  and  _365
REMARK  148  A    between atoms: _365  and  _366
REMARK  149  A    between atoms: _365  and  _368
REMARK  150  A    between atoms: _368  and  _369
REMARK  151  A    between atoms: _372  and  _374
REMARK  152  A    between atoms: _374  and  _375
REMARK  153  A    between atoms: _374  and  _377
REMARK  154  A    between atoms: _377  and  _378
REMARK  155  A    between atoms: _381  and  _383
REMARK  156  A    between atoms: _383  and  _384
REMARK  157  A    between atoms: _383  and  _386
REMARK  158  A    between atoms: _389  and  _391
REMARK  159  A    between atoms: _391  and  _392
REMARK  160  A    between atoms: _391  and  _394
REMARK  161  A    between atoms: _394  and  _395
REMARK  162  A    between atoms: _395  and  _396
REMARK  163  A    between atoms: _396  and  _397
REMARK  164  A    between atoms: _397  and  _398
REMARK  165  A    between atoms: _402  and  _404
REMARK  166  A    between atoms: _404  and  _405
REMARK  167  A    between atoms: _404  and  _407
REMARK  168  A    between atoms: _407  and  _408
REMARK  169  A    between atoms: _408  and  _409
REMARK  170  A    between atoms: _411  and  _413
REMARK  171  A    between atoms: _413  and  _414
REMARK  172  A    between atoms: _413  and  _416
REMARK  173  A    between atoms: _416  and  _417
REMARK  174  A    between atoms: _420  and  _422
REMARK  175  A    between atoms: _422  and  _423
REMARK  176  A    between atoms: _425  and  _427
REMARK  177  A    between atoms: _427  and  _428
REMARK  178  A    between atoms: _430  and  _432
REMARK  179  A    between atoms: _432  and  _433
REMARK  180  A    between atoms: _432  and  _435
REMARK  181  A    between atoms: _435  and  _436
REMARK  182  A    between atoms: _439  and  _441
REMARK  183  A    between atoms: _441  and  _442
REMARK  184  A    between atoms: _444  and  _446
REMARK  185  A    between atoms: _446  and  _447
REMARK  186  A    between atoms: _449  and  _451
REMARK  187  A    between atoms: _451  and  _452
REMARK  188  A    between atoms: _451  and  _454
REMARK  189  A    between atoms: _454  and  _455
REMARK  190  A    between atoms: _461  and  _463
REMARK  191  A    between atoms: _463  and  _464
REMARK  192  A    between atoms: _463  and  _466
REMARK  193  A    between atoms: _469  and  _471
REMARK  194  A    between atoms: _471  and  _472
REMARK  195  A    between atoms: _471  and  _474
REMARK  196  A    between atoms: _477  and  _479
REMARK  197  A    between atoms: _479  and  _480
REMARK  198  A    between atoms: _479  and  _482
REMARK  199  A    between atoms: _482  and  _483
REMARK  200  A    between atoms: _487  and  _488
REMARK  201  A    between atoms: _493  and  _495
REMARK  202  A    between atoms: _495  and  _496
REMARK  203  A    between atoms: _495  and  _498
REMARK  204  A    between atoms: _498  and  _499
REMARK  205  A    between atoms: _503  and  _504
REMARK  206  A    between atoms: _509  and  _511
REMARK  207  A    between atoms: _511  and  _512
REMARK  208  A    between atoms: _511  and  _514
REMARK  209  A    between atoms: _517  and  _519
REMARK  210  A    between atoms: _519  and  _520
REMARK  211  A    between atoms: _519  and  _522
REMARK  212  A    between atoms: _522  and  _523
REMARK  213  A    between atoms: _528  and  _530
REMARK  214  A    between atoms: _530  and  _531
REMARK  215  A    between atoms: _530  and  _533
REMARK  216  A    between atoms: _533  and  _534
REMARK  217  A    between atoms: _537  and  _539
REMARK  218  A    between atoms: _539  and  _540
REMARK  219  A    between atoms: _539  and  _542
REMARK  220  A    between atoms: _542  and  _543
REMARK  221  A    between atoms: _546  and  _548
REMARK  222  A    between atoms: _548  and  _549
REMARK  223  A    between atoms: _551  and  _553
REMARK  224  A    between atoms: _553  and  _554
REMARK  225  A    between atoms: _553  and  _556
REMARK  226  A    between atoms: _556  and  _557
REMARK  227  A    between atoms: _557  and  _558
REMARK  228  A    between atoms: _558  and  _559
REMARK                            x       y       z     vdW  Elec       q    Type
REMARK                         _______ _______ _______ _____ _____    ______ ____
ROOT
ATOM      1  O   HOH     1       8.666  21.551  13.783  0.00  0.00    +0.000 OA
ENDROOT
TORSDOF 0
REMARK  Name = ../refined-set-2016/3d1y/3d1y_pocket.pdb
REMARK  228 active torsions:
REMARK  status: ('A' for Active; 'I' for Inactive)
REMARK    1  A    between atoms: _1  and  _3
REMARK    2  A    between atoms: _3  and  _4
REMARK    3  A    between atoms: _3  and  _6
REMARK    4  A    between atoms: _6  and  _7
REMARK    5  A    between atoms: _7  and  _8
REMARK    6  A    between atoms: _8  and  _9
REMARK    7  A    between atoms: _18  and  _20
REMARK    8  A    between atoms: _20  and  _21
REMARK    9  A    between atoms: _20  and  _23
REMARK   10  A    between atoms: _23  and  _24
REMARK   11  A    between atoms: _27  and  _29
REMARK   12  A    between atoms: _29  and  _30
REMARK   13  A    between atoms: _29  and  _32
REMARK   14  A    between atoms: _32  and  _33
REMARK   15  A    between atoms: _36  and  _38
REMARK   16  A    between atoms: _38  and  _39
REMARK   17  A    between atoms: _38  and  _41
REMARK   18  A    between atoms: _41  and  _42
REMARK   19  A    between atoms: _45  and  _47
REMARK   20  A    between atoms: _47  and  _48
REMARK   21  A    between atoms: _47  and  _50
REMARK   22  A    between atoms: _50  and  _51
REMARK   23  A    between atoms: _54  and  _56
REMARK   24  A    between atoms: _56  and  _57
REMARK   25  A    between atoms: _59  and  _61
REMARK   26  A    between atoms: _61  and  _62
REMARK   27  A    between atoms: _65  and  _67
REMARK   28  A    between atoms: _67  and  _68
REMARK   29  A    between atoms: _67  and  _70
REMARK   30  A    between atoms: _70  and  _71
REMARK   31  A    between atoms: _74  and  _76
REMARK   32  A    between atoms: _76  and  _77
REMARK   33  A    between atoms: _76  and  _79
REMARK   34  A    between atoms: _79  and  _80
REMARK   35  A    between atoms: _83  and  _85
REMARK   36  A    between atoms: _85  and  _86
REMARK   37  A    between atoms: _85  and  _88
REMARK   38  A    between atoms: _88  and  _89
REMARK   39  A    between atoms: _92  and  _94
REMARK   40  A    between atoms: _94  and  _95
REMARK   41  A    between atoms: _94  and  _97
REMARK   42  A    between atoms: _100  and  _102
REMARK   43  A    between atoms: _102  and  _103
REMARK   44  A    between atoms: _102  and  _105
REMARK   45  A    between atoms: _105  and  _106
REMARK   46  A    between atoms: _106  and  _107
REMARK   47  A    between atoms: _107  and  _108
REMARK   48  A    between atoms: _108  and  _109
REMARK   49  A    between atoms: _113  and  _115
REMARK   50  A    between atoms: _115  and  _116
REMARK   51  A    between atoms: _115  and  _118
REMARK   52  A    between atoms: _118  and  _119
REMARK   53  A    between atoms: _119  and  _120
REMARK   54  A    between atoms: _122  and  _124
REMARK   55  A    between atoms: _124  and  _125
REMARK   56  A    between atoms: _124  and  _127
REMARK   57  A    between atoms: _127  and  _128
REMARK   58  A    between atoms: _131  and  _133
REMARK   59  A    between atoms: _133  and  _134
REMARK   60  A    between atoms: _136  and  _138
REMARK   61  A    between atoms: _138  and  _139
REMARK   62  A    between atoms: _141  and  _143
REMARK   63  A    between atoms: _143  and  _144
REMARK   64  A    between atoms: _143  and  _146
REMARK   65  A    between atoms: _146  and  _147
REMARK   66  A    between atoms: _150  and  _152
REMARK   67  A    between atoms: _152  and  _153
REMARK   68  A    between atoms: _155  and  _157
REMARK   69  A    between atoms: _157  and  _158
REMARK   70  A    between atoms: _160  and  _162
REMARK   71  A    between atoms: _162  and  _163
REMARK   72  A    between atoms: _162  and  _165
REMARK   73  A    between atoms: _165  and  _166
REMARK   74  A    between atoms: _172  and  _174
REMARK   75  A    between atoms: _174  and  _175
REMARK   76  A    between atoms: _174  and  _177
REMARK   77  A    between atoms: _180  and  _182
REMARK   78  A    between atoms: _182  and  _183
REMARK   79  A    between atoms: _182  and  _185
REMARK   80  A    between atoms: _188  and  _190
REMARK   81  A    between atoms: _190  and  _191
REMARK   82  A    between atoms: _190  and  _193
REMARK   83  A    between atoms: _193  and  _194
REMARK   84  A    between atoms: _198  and  _199
REMARK   85  A    between atoms: _204  and  _206
REMARK   86  A    between atoms: _206  and  _207
REMARK   87  A    between atoms: _206  and  _209
REMARK   88  A    between atoms: _209  and  _210
REMARK   89  A    between atoms: _214  and  _215
REMARK   90  A    between atoms: _220  and  _222
REMARK   91  A    between atoms: _222  and  _223
REMARK   92  A    between atoms: _222  and  _225
REMARK   93  A    between atoms: _228  and  _230
REMARK   94  A    between atoms: _230  and  _231
REMARK   95  A    between atoms: _230  and  _233
REMARK   96  A    between atoms: _233  and  _234
REMARK   97  A    between atoms: _239  and  _241
REMARK   98  A    between atoms: _241  and  _242
REMARK   99  A    between atoms: _241  and  _244
REMARK  100  A    between atoms: _244  and  _245
REMARK  101  A    between atoms: _248  and  _250
REMARK  102  A    between atoms: _250  and  _251
REMARK  103  A    between atoms: _250  and  _253
REMARK  104  A    between atoms: _253  and  _254
REMARK  105  A    between atoms: _257  and  _259
REMARK  106  A    between atoms: _259  and  _260
REMARK  107  A    between atoms: _262  and  _264
REMARK  108  A    between atoms: _264  and  _265
REMARK  109  A    between atoms: _264  and  _267
REMARK  110  A    between atoms: _267  and  _268
REMARK  111  A    between atoms: _268  and  _269
REMARK  112  A    between atoms: _269  and  _270
REMARK  113  A    between atoms: _279  and  _281
REMARK  114  A    between atoms: _281  and  _282
REMARK  115  A    between atoms: _281  and  _284
REMARK  116  A    between atoms: _284  and  _285
REMARK  117  A    between atoms: _290  and  _292
REMARK  118  A    between atoms: _292  and  _293
REMARK  119  A    between atoms: _292  and  _295
REMARK  120  A    between atoms: _295  and  _296
REMARK  121  A    between atoms: _296  and  _297
REMARK  122  A    between atoms: _297  and  _298
REMARK  123  A    between atoms: _307  and  _309
REMARK  124  A    between atoms: _309  and  _310
REMARK  125  A    between atoms: _309  and  _312
REMARK  126  A    between atoms: _312  and  _313
REMARK  127  A    between atoms: _316  and  _318
REMARK  128  A    between atoms: _318  and  _319
REMARK  129  A    between atoms: _318  and  _321
REMARK  130  A    between atoms: _321  and  _322
REMARK  131  A    between atoms: _325  and  _327
REMARK  132  A    between atoms: _327  and  _328
REMARK  133  A    between atoms: _327  and  _330
REMARK  134  A    between atoms: _330  and  _331
REMARK  135  A    between atoms: _334  and  _336
REMARK  136  A    between atoms: _336  and  _337
REMARK  137  A    between atoms: _336  and  _339
REMARK  138  A    between atoms: _339  and  _340
REMARK  139  A    between atoms: _343  and  _345
REMARK  140  A    between atoms: _345  and  _346
REMARK  141  A    between atoms: _348  and  _350
REMARK  142  A    between atoms: _350  and  _351
REMARK  143  A    between atoms: _354  and  _356
REMARK  144  A    between atoms: _356  and  _357
REMARK  145  A    between atoms: _356  and  _359
REMARK  146  A    between atoms: _359  and  _360
REMARK  147  A    between atoms: _363  and  _365
REMARK  148  A    between atoms: _365  and  _366
REMARK  149  A    between atoms: _365  and  _368
REMARK  150  A    between atoms: _368  and  _369
REMARK  151  A    between atoms: _372  and  _374
REMARK  152  A    between atoms: _374  and  _375
REMARK  153  A    between atoms: _374  and  _377
REMARK  154  A    between atoms: _377  and  _378
REMARK  155  A    between atoms: _381  and  _383
REMARK  156  A    between atoms: _383  and  _384
REMARK  157  A    between atoms: _383  and  _386
REMARK  158  A    between atoms: _389  and  _391
REMARK  159  A    between atoms: _391  and  _392
REMARK  160  A    between atoms: _391  and  _394
REMARK  161  A    between atoms: _394  and  _395
REMARK  162  A    between atoms: _395  and  _396
REMARK  163  A    between atoms: _396  and  _397
REMARK  164  A    between atoms: _397  and  _398
REMARK  165  A    between atoms: _402  and  _404
REMARK  166  A    between atoms: _404  and  _405
REMARK  167  A    between atoms: _404  and  _407
REMARK  168  A    between atoms: _407  and  _408
REMARK  169  A    between atoms: _408  and  _409
REMARK  170  A    between atoms: _411  and  _413
REMARK  171  A    between atoms: _413  and  _414
REMARK  172  A    between atoms: _413  and  _416
REMARK  173  A    between atoms: _416  and  _417
REMARK  174  A    between atoms: _420  and  _422
REMARK  175  A    between atoms: _422  and  _423
REMARK  176  A    between atoms: _425  and  _427
REMARK  177  A    between atoms: _427  and  _428
REMARK  178  A    between atoms: _430  and  _432
REMARK  179  A    between atoms: _432  and  _433
REMARK  180  A    between atoms: _432  and  _435
REMARK  181  A    between atoms: _435  and  _436
REMARK  182  A    between atoms: _439  and  _441
REMARK  183  A    between atoms: _441  and  _442
REMARK  184  A    between atoms: _444  and  _446
REMARK  185  A    between atoms: _446  and  _447
REMARK  186  A    between atoms: _449  and  _451
REMARK  187  A    between atoms: _451  and  _452
REMARK  188  A    between atoms: _451  and  _454
REMARK  189  A    between atoms: _454  and  _455
REMARK  190  A    between atoms: _461  and  _463
REMARK  191  A    between atoms: _463  and  _464
REMARK  192  A    between atoms: _463  and  _466
REMARK  193  A    between atoms: _469  and  _471
REMARK  194  A    between atoms: _471  and  _472
REMARK  195  A    between atoms: _471  and  _474
REMARK  196  A    between atoms: _477  and  _479
REMARK  197  A    between atoms: _479  and  _480
REMARK  198  A    between atoms: _479  and  _482
REMARK  199  A    between atoms: _482  and  _483
REMARK  200  A    between atoms: _487  and  _488
REMARK  201  A    between atoms: _493  and  _495
REMARK  202  A    between atoms: _495  and  _496
REMARK  203  A    between atoms: _495  and  _498
REMARK  204  A    between atoms: _498  and  _499
REMARK  205  A    between atoms: _503  and  _504
REMARK  206  A    between atoms: _509  and  _511
REMARK  207  A    between atoms: _511  and  _512
REMARK  208  A    between atoms: _511  and  _514
REMARK  209  A    between atoms: _517  and  _519
REMARK  210  A    between atoms: _519  and  _520
REMARK  211  A    between atoms: _519  and  _522
REMARK  212  A    between atoms: _522  and  _523
REMARK  213  A    between atoms: _528  and  _530
REMARK  214  A    between atoms: _530  and  _531
REMARK  215  A    between atoms: _530  and  _533
REMARK  216  A    between atoms: _533  and  _534
REMARK  217  A    between atoms: _537  and  _539
REMARK  218  A    between atoms: _539  and  _540
REMARK  219  A    between atoms: _539  and  _542
REMARK  220  A    between atoms: _542  and  _543
REMARK  221  A    between atoms: _546  and  _548
REMARK  222  A    between atoms: _548  and  _549
REMARK  223  A    between atoms: _551  and  _553
REMARK  224  A    between atoms: _553  and  _554
REMARK  225  A    between atoms: _553  and  _556
REMARK  226  A    between atoms: _556  and  _557
REMARK  227  A    between atoms: _557  and  _558
REMARK  228  A    between atoms: _558  and  _559
REMARK                            x       y       z     vdW  Elec       q    Type
REMARK                         _______ _______ _______ _____ _____    ______ ____
ROOT
ATOM      1  O   HOH     1      25.502  30.289  17.318  0.00  0.00    +0.000 OA
ENDROOT
TORSDOF 0
REMARK  Name = ../refined-set-2016/3d1y/3d1y_pocket.pdb
REMARK  228 active torsions:
REMARK  status: ('A' for Active; 'I' for Inactive)
REMARK    1  A    between atoms: _1  and  _3
REMARK    2  A    between atoms: _3  and  _4
REMARK    3  A    between atoms: _3  and  _6
REMARK    4  A    between atoms: _6  and  _7
REMARK    5  A    between atoms: _7  and  _8
REMARK    6  A    between atoms: _8  and  _9
REMARK    7  A    between atoms: _18  and  _20
REMARK    8  A    between atoms: _20  and  _21
REMARK    9  A    between atoms: _20  and  _23
REMARK   10  A    between atoms: _23  and  _24
REMARK   11  A    between atoms: _27  and  _29
REMARK   12  A    between atoms: _29  and  _30
REMARK   13  A    between atoms: _29  and  _32
REMARK   14  A    between atoms: _32  and  _33
REMARK   15  A    between atoms: _36  and  _38
REMARK   16  A    between atoms: _38  and  _39
REMARK   17  A    between atoms: _38  and  _41
REMARK   18  A    between atoms: _41  and  _42
REMARK   19  A    between atoms: _45  and  _47
REMARK   20  A    between atoms: _47  and  _48
REMARK   21  A    between atoms: _47  and  _50
REMARK   22  A    between atoms: _50  and  _51
REMARK   23  A    between atoms: _54  and  _56
REMARK   24  A    between atoms: _56  and  _57
REMARK   25  A    between atoms: _59  and  _61
REMARK   26  A    between atoms: _61  and  _62
REMARK   27  A    between atoms: _65  and  _67
REMARK   28  A    between atoms: _67  and  _68
REMARK   29  A    between atoms: _67  and  _70
REMARK   30  A    between atoms: _70  and  _71
REMARK   31  A    between atoms: _74  and  _76
REMARK   32  A    between atoms: _76  and  _77
REMARK   33  A    between atoms: _76  and  _79
REMARK   34  A    between atoms: _79  and  _80
REMARK   35  A    between atoms: _83  and  _85
REMARK   36  A    between atoms: _85  and  _86
REMARK   37  A    between atoms: _85  and  _88
REMARK   38  A    between atoms: _88  and  _89
REMARK   39  A    between atoms: _92  and  _94
REMARK   40  A    between atoms: _94  and  _95
REMARK   41  A    between atoms: _94  and  _97
REMARK   42  A    between atoms: _100  and  _102
REMARK   43  A    between atoms: _102  and  _103
REMARK   44  A    between atoms: _102  and  _105
REMARK   45  A    between atoms: _105  and  _106
REMARK   46  A    between atoms: _106  and  _107
REMARK   47  A    between atoms: _107  and  _108
REMARK   48  A    between atoms: _108  and  _109
REMARK   49  A    between atoms: _113  and  _115
REMARK   50  A    between atoms: _115  and  _116
REMARK   51  A    between atoms: _115  and  _118
REMARK   52  A    between atoms: _118  and  _119
REMARK   53  A    between atoms: _119  and  _120
REMARK   54  A    between atoms: _122  and  _124
REMARK   55  A    between atoms: _124  and  _125
REMARK   56  A    between atoms: _124  and  _127
REMARK   57  A    between atoms: _127  and  _128
REMARK   58  A    between atoms: _131  and  _133
REMARK   59  A    between atoms: _133  and  _134
REMARK   60  A    between atoms: _136  and  _138
REMARK   61  A    between atoms: _138  and  _139
REMARK   62  A    between atoms: _141  and  _143
REMARK   63  A    between atoms: _143  and  _144
REMARK   64  A    between atoms: _143  and  _146
REMARK   65  A    between atoms: _146  and  _147
REMARK   66  A    between atoms: _150  and  _152
REMARK   67  A    between atoms: _152  and  _153
REMARK   68  A    between atoms: _155  and  _157
REMARK   69  A    between atoms: _157  and  _158
REMARK   70  A    between atoms: _160  and  _162
REMARK   71  A    between atoms: _162  and  _163
REMARK   72  A    between atoms: _162  and  _165
REMARK   73  A    between atoms: _165  and  _166
REMARK   74  A    between atoms: _172  and  _174
REMARK   75  A    between atoms: _174  and  _175
REMARK   76  A    between atoms: _174  and  _177
REMARK   77  A    between atoms: _180  and  _182
REMARK   78  A    between atoms: _182  and  _183
REMARK   79  A    between atoms: _182  and  _185
REMARK   80  A    between atoms: _188  and  _190
REMARK   81  A    between atoms: _190  and  _191
REMARK   82  A    between atoms: _190  and  _193
REMARK   83  A    between atoms: _193  and  _194
REMARK   84  A    between atoms: _198  and  _199
REMARK   85  A    between atoms: _204  and  _206
REMARK   86  A    between atoms: _206  and  _207
REMARK   87  A    between atoms: _206  and  _209
REMARK   88  A    between atoms: _209  and  _210
REMARK   89  A    between atoms: _214  and  _215
REMARK   90  A    between atoms: _220  and  _222
REMARK   91  A    between atoms: _222  and  _223
REMARK   92  A    between atoms: _222  and  _225
REMARK   93  A    between atoms: _228  and  _230
REMARK   94  A    between atoms: _230  and  _231
REMARK   95  A    between atoms: _230  and  _233
REMARK   96  A    between atoms: _233  and  _234
REMARK   97  A    between atoms: _239  and  _241
REMARK   98  A    between atoms: _241  and  _242
REMARK   99  A    between atoms: _241  and  _244
REMARK  100  A    between atoms: _244  and  _245
REMARK  101  A    between atoms: _248  and  _250
REMARK  102  A    between atoms: _250  and  _251
REMARK  103  A    between atoms: _250  and  _253
REMARK  104  A    between atoms: _253  and  _254
REMARK  105  A    between atoms: _257  and  _259
REMARK  106  A    between atoms: _259  and  _260
REMARK  107  A    between atoms: _262  and  _264
REMARK  108  A    between atoms: _264  and  _265
REMARK  109  A    between atoms: _264  and  _267
REMARK  110  A    between atoms: _267  and  _268
REMARK  111  A    between atoms: _268  and  _269
REMARK  112  A    between atoms: _269  and  _270
REMARK  113  A    between atoms: _279  and  _281
REMARK  114  A    between atoms: _281  and  _282
REMARK  115  A    between atoms: _281  and  _284
REMARK  116  A    between atoms: _284  and  _285
REMARK  117  A    between atoms: _290  and  _292
REMARK  118  A    between atoms: _292  and  _293
REMARK  119  A    between atoms: _292  and  _295
REMARK  120  A    between atoms: _295  and  _296
REMARK  121  A    between atoms: _296  and  _297
REMARK  122  A    between atoms: _297  and  _298
REMARK  123  A    between atoms: _307  and  _309
REMARK  124  A    between atoms: _309  and  _310
REMARK  125  A    between atoms: _309  and  _312
REMARK  126  A    between atoms: _312  and  _313
REMARK  127  A    between atoms: _316  and  _318
REMARK  128  A    between atoms: _318  and  _319
REMARK  129  A    between atoms: _318  and  _321
REMARK  130  A    between atoms: _321  and  _322
REMARK  131  A    between atoms: _325  and  _327
REMARK  132  A    between atoms: _327  and  _328
REMARK  133  A    between atoms: _327  and  _330
REMARK  134  A    between atoms: _330  and  _331
REMARK  135  A    between atoms: _334  and  _336
REMARK  136  A    between atoms: _336  and  _337
REMARK  137  A    between atoms: _336  and  _339
REMARK  138  A    between atoms: _339  and  _340
REMARK  139  A    between atoms: _343  and  _345
REMARK  140  A    between atoms: _345  and  _346
REMARK  141  A    between atoms: _348  and  _350
REMARK  142  A    between atoms: _350  and  _351
REMARK  143  A    between atoms: _354  and  _356
REMARK  144  A    between atoms: _356  and  _357
REMARK  145  A    between atoms: _356  and  _359
REMARK  146  A    between atoms: _359  and  _360
REMARK  147  A    between atoms: _363  and  _365
REMARK  148  A    between atoms: _365  and  _366
REMARK  149  A    between atoms: _365  and  _368
REMARK  150  A    between atoms: _368  and  _369
REMARK  151  A    between atoms: _372  and  _374
REMARK  152  A    between atoms: _374  and  _375
REMARK  153  A    between atoms: _374  and  _377
REMARK  154  A    between atoms: _377  and  _378
REMARK  155  A    between atoms: _381  and  _383
REMARK  156  A    between atoms: _383  and  _384
REMARK  157  A    between atoms: _383  and  _386
REMARK  158  A    between atoms: _389  and  _391
REMARK  159  A    between atoms: _391  and  _392
REMARK  160  A    between atoms: _391  and  _394
REMARK  161  A    between atoms: _394  and  _395
REMARK  162  A    between atoms: _395  and  _396
REMARK  163  A    between atoms: _396  and  _397
REMARK  164  A    between atoms: _397  and  _398
REMARK  165  A    between atoms: _402  and  _404
REMARK  166  A    between atoms: _404  and  _405
REMARK  167  A    between atoms: _404  and  _407
REMARK  168  A    between atoms: _407  and  _408
REMARK  169  A    between atoms: _408  and  _409
REMARK  170  A    between atoms: _411  and  _413
REMARK  171  A    between atoms: _413  and  _414
REMARK  172  A    between atoms: _413  and  _416
REMARK  173  A    between atoms: _416  and  _417
REMARK  174  A    between atoms: _420  and  _422
REMARK  175  A    between atoms: _422  and  _423
REMARK  176  A    between atoms: _425  and  _427
REMARK  177  A    between atoms: _427  and  _428
REMARK  178  A    between atoms: _430  and  _432
REMARK  179  A    between atoms: _432  and  _433
REMARK  180  A    between atoms: _432  and  _435
REMARK  181  A    between atoms: _435  and  _436
REMARK  182  A    between atoms: _439  and  _441
REMARK  183  A    between atoms: _441  and  _442
REMARK  184  A    between atoms: _444  and  _446
REMARK  185  A    between atoms: _446  and  _447
REMARK  186  A    between atoms: _449  and  _451
REMARK  187  A    between atoms: _451  and  _452
REMARK  188  A    between atoms: _451  and  _454
REMARK  189  A    between atoms: _454  and  _455
REMARK  190  A    between atoms: _461  and  _463
REMARK  191  A    between atoms: _463  and  _464
REMARK  192  A    between atoms: _463  and  _466
REMARK  193  A    between atoms: _469  and  _471
REMARK  194  A    between atoms: _471  and  _472
REMARK  195  A    between atoms: _471  and  _474
REMARK  196  A    between atoms: _477  and  _479
REMARK  197  A    between atoms: _479  and  _480
REMARK  198  A    between atoms: _479  and  _482
REMARK  199  A    between atoms: _482  and  _483
REMARK  200  A    between atoms: _487  and  _488
REMARK  201  A    between atoms: _493  and  _495
REMARK  202  A    between atoms: _495  and  _496
REMARK  203  A    between atoms: _495  and  _498
REMARK  204  A    between atoms: _498  and  _499
REMARK  205  A    between atoms: _503  and  _504
REMARK  206  A    between atoms: _509  and  _511
REMARK  207  A    between atoms: _511  and  _512
REMARK  208  A    between atoms: _511  and  _514
REMARK  209  A    between atoms: _517  and  _519
REMARK  210  A    between atoms: _519  and  _520
REMARK  211  A    between atoms: _519  and  _522
REMARK  212  A    between atoms: _522  and  _523
REMARK  213  A    between atoms: _528  and  _530
REMARK  214  A    between atoms: _530  and  _531
REMARK  215  A    between atoms: _530  and  _533
REMARK  216  A    between atoms: _533  and  _534
REMARK  217  A    between atoms: _537  and  _539
REMARK  218  A    between atoms: _539  and  _540
REMARK  219  A    between atoms: _539  and  _542
REMARK  220  A    between atoms: _542  and  _543
REMARK  221  A    between atoms: _546  and  _548
REMARK  222  A    between atoms: _548  and  _549
REMARK  223  A    between atoms: _551  and  _553
REMARK  224  A    between atoms: _553  and  _554
REMARK  225  A    between atoms: _553  and  _556
REMARK  226  A    between atoms: _556  and  _557
REMARK  227  A    between atoms: _557  and  _558
REMARK  228  A    between atoms: _558  and  _559
REMARK                            x       y       z     vdW  Elec       q    Type
REMARK                         _______ _______ _______ _____ _____    ______ ____
ROOT
ATOM      1  O   HOH     1      27.827  26.177  16.929  0.00  0.00    +0.000 OA
ENDROOT
TORSDOF 0
REMARK  Name = ../refined-set-2016/3d1y/3d1y_pocket.pdb
REMARK  228 active torsions:
REMARK  status: ('A' for Active; 'I' for Inactive)
REMARK    1  A    between atoms: _1  and  _3
REMARK    2  A    between atoms: _3  and  _4
REMARK    3  A    between atoms: _3  and  _6
REMARK    4  A    between atoms: _6  and  _7
REMARK    5  A    between atoms: _7  and  _8
REMARK    6  A    between atoms: _8  and  _9
REMARK    7  A    between atoms: _18  and  _20
REMARK    8  A    between atoms: _20  and  _21
REMARK    9  A    between atoms: _20  and  _23
REMARK   10  A    between atoms: _23  and  _24
REMARK   11  A    between atoms: _27  and  _29
REMARK   12  A    between atoms: _29  and  _30
REMARK   13  A    between atoms: _29  and  _32
REMARK   14  A    between atoms: _32  and  _33
REMARK   15  A    between atoms: _36  and  _38
REMARK   16  A    between atoms: _38  and  _39
REMARK   17  A    between atoms: _38  and  _41
REMARK   18  A    between atoms: _41  and  _42
REMARK   19  A    between atoms: _45  and  _47
REMARK   20  A    between atoms: _47  and  _48
REMARK   21  A    between atoms: _47  and  _50
REMARK   22  A    between atoms: _50  and  _51
REMARK   23  A    between atoms: _54  and  _56
REMARK   24  A    between atoms: _56  and  _57
REMARK   25  A    between atoms: _59  and  _61
REMARK   26  A    between atoms: _61  and  _62
REMARK   27  A    between atoms: _65  and  _67
REMARK   28  A    between atoms: _67  and  _68
REMARK   29  A    between atoms: _67  and  _70
REMARK   30  A    between atoms: _70  and  _71
REMARK   31  A    between atoms: _74  and  _76
REMARK   32  A    between atoms: _76  and  _77
REMARK   33  A    between atoms: _76  and  _79
REMARK   34  A    between atoms: _79  and  _80
REMARK   35  A    between atoms: _83  and  _85
REMARK   36  A    between atoms: _85  and  _86
REMARK   37  A    between atoms: _85  and  _88
REMARK   38  A    between atoms: _88  and  _89
REMARK   39  A    between atoms: _92  and  _94
REMARK   40  A    between atoms: _94  and  _95
REMARK   41  A    between atoms: _94  and  _97
REMARK   42  A    between atoms: _100  and  _102
REMARK   43  A    between atoms: _102  and  _103
REMARK   44  A    between atoms: _102  and  _105
REMARK   45  A    between atoms: _105  and  _106
REMARK   46  A    between atoms: _106  and  _107
REMARK   47  A    between atoms: _107  and  _108
REMARK   48  A    between atoms: _108  and  _109
REMARK   49  A    between atoms: _113  and  _115
REMARK   50  A    between atoms: _115  and  _116
REMARK   51  A    between atoms: _115  and  _118
REMARK   52  A    between atoms: _118  and  _119
REMARK   53  A    between atoms: _119  and  _120
REMARK   54  A    between atoms: _122  and  _124
REMARK   55  A    between atoms: _124  and  _125
REMARK   56  A    between atoms: _124  and  _127
REMARK   57  A    between atoms: _127  and  _128
REMARK   58  A    between atoms: _131  and  _133
REMARK   59  A    between atoms: _133  and  _134
REMARK   60  A    between atoms: _136  and  _138
REMARK   61  A    between atoms: _138  and  _139
REMARK   62  A    between atoms: _141  and  _143
REMARK   63  A    between atoms: _143  and  _144
REMARK   64  A    between atoms: _143  and  _146
REMARK   65  A    between atoms: _146  and  _147
REMARK   66  A    between atoms: _150  and  _152
REMARK   67  A    between atoms: _152  and  _153
REMARK   68  A    between atoms: _155  and  _157
REMARK   69  A    between atoms: _157  and  _158
REMARK   70  A    between atoms: _160  and  _162
REMARK   71  A    between atoms: _162  and  _163
REMARK   72  A    between atoms: _162  and  _165
REMARK   73  A    between atoms: _165  and  _166
REMARK   74  A    between atoms: _172  and  _174
REMARK   75  A    between atoms: _174  and  _175
REMARK   76  A    between atoms: _174  and  _177
REMARK   77  A    between atoms: _180  and  _182
REMARK   78  A    between atoms: _182  and  _183
REMARK   79  A    between atoms: _182  and  _185
REMARK   80  A    between atoms: _188  and  _190
REMARK   81  A    between atoms: _190  and  _191
REMARK   82  A    between atoms: _190  and  _193
REMARK   83  A    between atoms: _193  and  _194
REMARK   84  A    between atoms: _198  and  _199
REMARK   85  A    between atoms: _204  and  _206
REMARK   86  A    between atoms: _206  and  _207
REMARK   87  A    between atoms: _206  and  _209
REMARK   88  A    between atoms: _209  and  _210
REMARK   89  A    between atoms: _214  and  _215
REMARK   90  A    between atoms: _220  and  _222
REMARK   91  A    between atoms: _222  and  _223
REMARK   92  A    between atoms: _222  and  _225
REMARK   93  A    between atoms: _228  and  _230
REMARK   94  A    between atoms: _230  and  _231
REMARK   95  A    between atoms: _230  and  _233
REMARK   96  A    between atoms: _233  and  _234
REMARK   97  A    between atoms: _239  and  _241
REMARK   98  A    between atoms: _241  and  _242
REMARK   99  A    between atoms: _241  and  _244
REMARK  100  A    between atoms: _244  and  _245
REMARK  101  A    between atoms: _248  and  _250
REMARK  102  A    between atoms: _250  and  _251
REMARK  103  A    between atoms: _250  and  _253
REMARK  104  A    between atoms: _253  and  _254
REMARK  105  A    between atoms: _257  and  _259
REMARK  106  A    between atoms: _259  and  _260
REMARK  107  A    between atoms: _262  and  _264
REMARK  108  A    between atoms: _264  and  _265
REMARK  109  A    between atoms: _264  and  _267
REMARK  110  A    between atoms: _267  and  _268
REMARK  111  A    between atoms: _268  and  _269
REMARK  112  A    between atoms: _269  and  _270
REMARK  113  A    between atoms: _279  and  _281
REMARK  114  A    between atoms: _281  and  _282
REMARK  115  A    between atoms: _281  and  _284
REMARK  116  A    between atoms: _284  and  _285
REMARK  117  A    between atoms: _290  and  _292
REMARK  118  A    between atoms: _292  and  _293
REMARK  119  A    between atoms: _292  and  _295
REMARK  120  A    between atoms: _295  and  _296
REMARK  121  A    between atoms: _296  and  _297
REMARK  122  A    between atoms: _297  and  _298
REMARK  123  A    between atoms: _307  and  _309
REMARK  124  A    between atoms: _309  and  _310
REMARK  125  A    between atoms: _309  and  _312
REMARK  126  A    between atoms: _312  and  _313
REMARK  127  A    between atoms: _316  and  _318
REMARK  128  A    between atoms: _318  and  _319
REMARK  129  A    between atoms: _318  and  _321
REMARK  130  A    between atoms: _321  and  _322
REMARK  131  A    between atoms: _325  and  _327
REMARK  132  A    between atoms: _327  and  _328
REMARK  133  A    between atoms: _327  and  _330
REMARK  134  A    between atoms: _330  and  _331
REMARK  135  A    between atoms: _334  and  _336
REMARK  136  A    between atoms: _336  and  _337
REMARK  137  A    between atoms: _336  and  _339
REMARK  138  A    between atoms: _339  and  _340
REMARK  139  A    between atoms: _343  and  _345
REMARK  140  A    between atoms: _345  and  _346
REMARK  141  A    between atoms: _348  and  _350
REMARK  142  A    between atoms: _350  and  _351
REMARK  143  A    between atoms: _354  and  _356
REMARK  144  A    between atoms: _356  and  _357
REMARK  145  A    between atoms: _356  and  _359
REMARK  146  A    between atoms: _359  and  _360
REMARK  147  A    between atoms: _363  and  _365
REMARK  148  A    between atoms: _365  and  _366
REMARK  149  A    between atoms: _365  and  _368
REMARK  150  A    between atoms: _368  and  _369
REMARK  151  A    between atoms: _372  and  _374
REMARK  152  A    between atoms: _374  and  _375
REMARK  153  A    between atoms: _374  and  _377
REMARK  154  A    between atoms: _377  and  _378
REMARK  155  A    between atoms: _381  and  _383
REMARK  156  A    between atoms: _383  and  _384
REMARK  157  A    between atoms: _383  and  _386
REMARK  158  A    between atoms: _389  and  _391
REMARK  159  A    between atoms: _391  and  _392
REMARK  160  A    between atoms: _391  and  _394
REMARK  161  A    between atoms: _394  and  _395
REMARK  162  A    between atoms: _395  and  _396
REMARK  163  A    between atoms: _396  and  _397
REMARK  164  A    between atoms: _397  and  _398
REMARK  165  A    between atoms: _402  and  _404
REMARK  166  A    between atoms: _404  and  _405
REMARK  167  A    between atoms: _404  and  _407
REMARK  168  A    between atoms: _407  and  _408
REMARK  169  A    between atoms: _408  and  _409
REMARK  170  A    between atoms: _411  and  _413
REMARK  171  A    between atoms: _413  and  _414
REMARK  172  A    between atoms: _413  and  _416
REMARK  173  A    between atoms: _416  and  _417
REMARK  174  A    between atoms: _420  and  _422
REMARK  175  A    between atoms: _422  and  _423
REMARK  176  A    between atoms: _425  and  _427
REMARK  177  A    between atoms: _427  and  _428
REMARK  178  A    between atoms: _430  and  _432
REMARK  179  A    between atoms: _432  and  _433
REMARK  180  A    between atoms: _432  and  _435
REMARK  181  A    between atoms: _435  and  _436
REMARK  182  A    between atoms: _439  and  _441
REMARK  183  A    between atoms: _441  and  _442
REMARK  184  A    between atoms: _444  and  _446
REMARK  185  A    between atoms: _446  and  _447
REMARK  186  A    between atoms: _449  and  _451
REMARK  187  A    between atoms: _451  and  _452
REMARK  188  A    between atoms: _451  and  _454
REMARK  189  A    between atoms: _454  and  _455
REMARK  190  A    between atoms: _461  and  _463
REMARK  191  A    between atoms: _463  and  _464
REMARK  192  A    between atoms: _463  and  _466
REMARK  193  A    between atoms: _469  and  _471
REMARK  194  A    between atoms: _471  and  _472
REMARK  195  A    between atoms: _471  and  _474
REMARK  196  A    between atoms: _477  and  _479
REMARK  197  A    between atoms: _479  and  _480
REMARK  198  A    between atoms: _479  and  _482
REMARK  199  A    between atoms: _482  and  _483
REMARK  200  A    between atoms: _487  and  _488
REMARK  201  A    between atoms: _493  and  _495
REMARK  202  A    between atoms: _495  and  _496
REMARK  203  A    between atoms: _495  and  _498
REMARK  204  A    between atoms: _498  and  _499
REMARK  205  A    between atoms: _503  and  _504
REMARK  206  A    between atoms: _509  and  _511
REMARK  207  A    between atoms: _511  and  _512
REMARK  208  A    between atoms: _511  and  _514
REMARK  209  A    between atoms: _517  and  _519
REMARK  210  A    between atoms: _519  and  _520
REMARK  211  A    between atoms: _519  and  _522
REMARK  212  A    between atoms: _522  and  _523
REMARK  213  A    between atoms: _528  and  _530
REMARK  214  A    between atoms: _530  and  _531
REMARK  215  A    between atoms: _530  and  _533
REMARK  216  A    between atoms: _533  and  _534
REMARK  217  A    between atoms: _537  and  _539
REMARK  218  A    between atoms: _539  and  _540
REMARK  219  A    between atoms: _539  and  _542
REMARK  220  A    between atoms: _542  and  _543
REMARK  221  A    between atoms: _546  and  _548
REMARK  222  A    between atoms: _548  and  _549
REMARK  223  A    between atoms: _551  and  _553
REMARK  224  A    between atoms: _553  and  _554
REMARK  225  A    between atoms: _553  and  _556
REMARK  226  A    between atoms: _556  and  _557
REMARK  227  A    between atoms: _557  and  _558
REMARK  228  A    between atoms: _558  and  _559
REMARK                            x       y       z     vdW  Elec       q    Type
REMARK                         _______ _______ _______ _____ _____    ______ ____
ROOT
ATOM      1  O   HOH     1      25.211  28.820  14.948  0.00  0.00    +0.000 OA
ENDROOT
TORSDOF 0
REMARK  Name = ../refined-set-2016/3d1y/3d1y_pocket.pdb
REMARK  228 active torsions:
REMARK  status: ('A' for Active; 'I' for Inactive)
REMARK    1  A    between atoms: _1  and  _3
REMARK    2  A    between atoms: _3  and  _4
REMARK    3  A    between atoms: _3  and  _6
REMARK    4  A    between atoms: _6  and  _7
REMARK    5  A    between atoms: _7  and  _8
REMARK    6  A    between atoms: _8  and  _9
REMARK    7  A    between atoms: _18  and  _20
REMARK    8  A    between atoms: _20  and  _21
REMARK    9  A    between atoms: _20  and  _23
REMARK   10  A    between atoms: _23  and  _24
REMARK   11  A    between atoms: _27  and  _29
REMARK   12  A    between atoms: _29  and  _30
REMARK   13  A    between atoms: _29  and  _32
REMARK   14  A    between atoms: _32  and  _33
REMARK   15  A    between atoms: _36  and  _38
REMARK   16  A    between atoms: _38  and  _39
REMARK   17  A    between atoms: _38  and  _41
REMARK   18  A    between atoms: _41  and  _42
REMARK   19  A    between atoms: _45  and  _47
REMARK   20  A    between atoms: _47  and  _48
REMARK   21  A    between atoms: _47  and  _50
REMARK   22  A    between atoms: _50  and  _51
REMARK   23  A    between atoms: _54  and  _56
REMARK   24  A    between atoms: _56  and  _57
REMARK   25  A    between atoms: _59  and  _61
REMARK   26  A    between atoms: _61  and  _62
REMARK   27  A    between atoms: _65  and  _67
REMARK   28  A    between atoms: _67  and  _68
REMARK   29  A    between atoms: _67  and  _70
REMARK   30  A    between atoms: _70  and  _71
REMARK   31  A    between atoms: _74  and  _76
REMARK   32  A    between atoms: _76  and  _77
REMARK   33  A    between atoms: _76  and  _79
REMARK   34  A    between atoms: _79  and  _80
REMARK   35  A    between atoms: _83  and  _85
REMARK   36  A    between atoms: _85  and  _86
REMARK   37  A    between atoms: _85  and  _88
REMARK   38  A    between atoms: _88  and  _89
REMARK   39  A    between atoms: _92  and  _94
REMARK   40  A    between atoms: _94  and  _95
REMARK   41  A    between atoms: _94  and  _97
REMARK   42  A    between atoms: _100  and  _102
REMARK   43  A    between atoms: _102  and  _103
REMARK   44  A    between atoms: _102  and  _105
REMARK   45  A    between atoms: _105  and  _106
REMARK   46  A    between atoms: _106  and  _107
REMARK   47  A    between atoms: _107  and  _108
REMARK   48  A    between atoms: _108  and  _109
REMARK   49  A    between atoms: _113  and  _115
REMARK   50  A    between atoms: _115  and  _116
REMARK   51  A    between atoms: _115  and  _118
REMARK   52  A    between atoms: _118  and  _119
REMARK   53  A    between atoms: _119  and  _120
REMARK   54  A    between atoms: _122  and  _124
REMARK   55  A    between atoms: _124  and  _125
REMARK   56  A    between atoms: _124  and  _127
REMARK   57  A    between atoms: _127  and  _128
REMARK   58  A    between atoms: _131  and  _133
REMARK   59  A    between atoms: _133  and  _134
REMARK   60  A    between atoms: _136  and  _138
REMARK   61  A    between atoms: _138  and  _139
REMARK   62  A    between atoms: _141  and  _143
REMARK   63  A    between atoms: _143  and  _144
REMARK   64  A    between atoms: _143  and  _146
REMARK   65  A    between atoms: _146  and  _147
REMARK   66  A    between atoms: _150  and  _152
REMARK   67  A    between atoms: _152  and  _153
REMARK   68  A    between atoms: _155  and  _157
REMARK   69  A    between atoms: _157  and  _158
REMARK   70  A    between atoms: _160  and  _162
REMARK   71  A    between atoms: _162  and  _163
REMARK   72  A    between atoms: _162  and  _165
REMARK   73  A    between atoms: _165  and  _166
REMARK   74  A    between atoms: _172  and  _174
REMARK   75  A    between atoms: _174  and  _175
REMARK   76  A    between atoms: _174  and  _177
REMARK   77  A    between atoms: _180  and  _182
REMARK   78  A    between atoms: _182  and  _183
REMARK   79  A    between atoms: _182  and  _185
REMARK   80  A    between atoms: _188  and  _190
REMARK   81  A    between atoms: _190  and  _191
REMARK   82  A    between atoms: _190  and  _193
REMARK   83  A    between atoms: _193  and  _194
REMARK   84  A    between atoms: _198  and  _199
REMARK   85  A    between atoms: _204  and  _206
REMARK   86  A    between atoms: _206  and  _207
REMARK   87  A    between atoms: _206  and  _209
REMARK   88  A    between atoms: _209  and  _210
REMARK   89  A    between atoms: _214  and  _215
REMARK   90  A    between atoms: _220  and  _222
REMARK   91  A    between atoms: _222  and  _223
REMARK   92  A    between atoms: _222  and  _225
REMARK   93  A    between atoms: _228  and  _230
REMARK   94  A    between atoms: _230  and  _231
REMARK   95  A    between atoms: _230  and  _233
REMARK   96  A    between atoms: _233  and  _234
REMARK   97  A    between atoms: _239  and  _241
REMARK   98  A    between atoms: _241  and  _242
REMARK   99  A    between atoms: _241  and  _244
REMARK  100  A    between atoms: _244  and  _245
REMARK  101  A    between atoms: _248  and  _250
REMARK  102  A    between atoms: _250  and  _251
REMARK  103  A    between atoms: _250  and  _253
REMARK  104  A    between atoms: _253  and  _254
REMARK  105  A    between atoms: _257  and  _259
REMARK  106  A    between atoms: _259  and  _260
REMARK  107  A    between atoms: _262  and  _264
REMARK  108  A    between atoms: _264  and  _265
REMARK  109  A    between atoms: _264  and  _267
REMARK  110  A    between atoms: _267  and  _268
REMARK  111  A    between atoms: _268  and  _269
REMARK  112  A    between atoms: _269  and  _270
REMARK  113  A    between atoms: _279  and  _281
REMARK  114  A    between atoms: _281  and  _282
REMARK  115  A    between atoms: _281  and  _284
REMARK  116  A    between atoms: _284  and  _285
REMARK  117  A    between atoms: _290  and  _292
REMARK  118  A    between atoms: _292  and  _293
REMARK  119  A    between atoms: _292  and  _295
REMARK  120  A    between atoms: _295  and  _296
REMARK  121  A    between atoms: _296  and  _297
REMARK  122  A    between atoms: _297  and  _298
REMARK  123  A    between atoms: _307  and  _309
REMARK  124  A    between atoms: _309  and  _310
REMARK  125  A    between atoms: _309  and  _312
REMARK  126  A    between atoms: _312  and  _313
REMARK  127  A    between atoms: _316  and  _318
REMARK  128  A    between atoms: _318  and  _319
REMARK  129  A    between atoms: _318  and  _321
REMARK  130  A    between atoms: _321  and  _322
REMARK  131  A    between atoms: _325  and  _327
REMARK  132  A    between atoms: _327  and  _328
REMARK  133  A    between atoms: _327  and  _330
REMARK  134  A    between atoms: _330  and  _331
REMARK  135  A    between atoms: _334  and  _336
REMARK  136  A    between atoms: _336  and  _337
REMARK  137  A    between atoms: _336  and  _339
REMARK  138  A    between atoms: _339  and  _340
REMARK  139  A    between atoms: _343  and  _345
REMARK  140  A    between atoms: _345  and  _346
REMARK  141  A    between atoms: _348  and  _350
REMARK  142  A    between atoms: _350  and  _351
REMARK  143  A    between atoms: _354  and  _356
REMARK  144  A    between atoms: _356  and  _357
REMARK  145  A    between atoms: _356  and  _359
REMARK  146  A    between atoms: _359  and  _360
REMARK  147  A    between atoms: _363  and  _365
REMARK  148  A    between atoms: _365  and  _366
REMARK  149  A    between atoms: _365  and  _368
REMARK  150  A    between atoms: _368  and  _369
REMARK  151  A    between atoms: _372  and  _374
REMARK  152  A    between atoms: _374  and  _375
REMARK  153  A    between atoms: _374  and  _377
REMARK  154  A    between atoms: _377  and  _378
REMARK  155  A    between atoms: _381  and  _383
REMARK  156  A    between atoms: _383  and  _384
REMARK  157  A    between atoms: _383  and  _386
REMARK  158  A    between atoms: _389  and  _391
REMARK  159  A    between atoms: _391  and  _392
REMARK  160  A    between atoms: _391  and  _394
REMARK  161  A    between atoms: _394  and  _395
REMARK  162  A    between atoms: _395  and  _396
REMARK  163  A    between atoms: _396  and  _397
REMARK  164  A    between atoms: _397  and  _398
REMARK  165  A    between atoms: _402  and  _404
REMARK  166  A    between atoms: _404  and  _405
REMARK  167  A    between atoms: _404  and  _407
REMARK  168  A    between atoms: _407  and  _408
REMARK  169  A    between atoms: _408  and  _409
REMARK  170  A    between atoms: _411  and  _413
REMARK  171  A    between atoms: _413  and  _414
REMARK  172  A    between atoms: _413  and  _416
REMARK  173  A    between atoms: _416  and  _417
REMARK  174  A    between atoms: _420  and  _422
REMARK  175  A    between atoms: _422  and  _423
REMARK  176  A    between atoms: _425  and  _427
REMARK  177  A    between atoms: _427  and  _428
REMARK  178  A    between atoms: _430  and  _432
REMARK  179  A    between atoms: _432  and  _433
REMARK  180  A    between atoms: _432  and  _435
REMARK  181  A    between atoms: _435  and  _436
REMARK  182  A    between atoms: _439  and  _441
REMARK  183  A    between atoms: _441  and  _442
REMARK  184  A    between atoms: _444  and  _446
REMARK  185  A    between atoms: _446  and  _447
REMARK  186  A    between atoms: _449  and  _451
REMARK  187  A    between atoms: _451  and  _452
REMARK  188  A    between atoms: _451  and  _454
REMARK  189  A    between atoms: _454  and  _455
REMARK  190  A    between atoms: _461  and  _463
REMARK  191  A    between atoms: _463  and  _464
REMARK  192  A    between atoms: _463  and  _466
REMARK  193  A    between atoms: _469  and  _471
REMARK  194  A    between atoms: _471  and  _472
REMARK  195  A    between atoms: _471  and  _474
REMARK  196  A    between atoms: _477  and  _479
REMARK  197  A    between atoms: _479  and  _480
REMARK  198  A    between atoms: _479  and  _482
REMARK  199  A    between atoms: _482  and  _483
REMARK  200  A    between atoms: _487  and  _488
REMARK  201  A    between atoms: _493  and  _495
REMARK  202  A    between atoms: _495  and  _496
REMARK  203  A    between atoms: _495  and  _498
REMARK  204  A    between atoms: _498  and  _499
REMARK  205  A    between atoms: _503  and  _504
REMARK  206  A    between atoms: _509  and  _511
REMARK  207  A    between atoms: _511  and  _512
REMARK  208  A    between atoms: _511  and  _514
REMARK  209  A    between atoms: _517  and  _519
REMARK  210  A    between atoms: _519  and  _520
REMARK  211  A    between atoms: _519  and  _522
REMARK  212  A    between atoms: _522  and  _523
REMARK  213  A    between atoms: _528  and  _530
REMARK  214  A    between atoms: _530  and  _531
REMARK  215  A    between atoms: _530  and  _533
REMARK  216  A    between atoms: _533  and  _534
REMARK  217  A    between atoms: _537  and  _539
REMARK  218  A    between atoms: _539  and  _540
REMARK  219  A    between atoms: _539  and  _542
REMARK  220  A    between atoms: _542  and  _543
REMARK  221  A    between atoms: _546  and  _548
REMARK  222  A    between atoms: _548  and  _549
REMARK  223  A    between atoms: _551  and  _553
REMARK  224  A    between atoms: _553  and  _554
REMARK  225  A    between atoms: _553  and  _556
REMARK  226  A    between atoms: _556  and  _557
REMARK  227  A    between atoms: _557  and  _558
REMARK  228  A    between atoms: _558  and  _559
REMARK                            x       y       z     vdW  Elec       q    Type
REMARK                         _______ _______ _______ _____ _____    ______ ____
ROOT
ATOM      1  O   HOH     1       6.534  22.083  11.575  0.00  0.00    +0.000 OA
ENDROOT
TORSDOF 0
REMARK  Name = ../refined-set-2016/3d1y/3d1y_pocket.pdb
REMARK  228 active torsions:
REMARK  status: ('A' for Active; 'I' for Inactive)
REMARK    1  A    between atoms: _1  and  _3
REMARK    2  A    between atoms: _3  and  _4
REMARK    3  A    between atoms: _3  and  _6
REMARK    4  A    between atoms: _6  and  _7
REMARK    5  A    between atoms: _7  and  _8
REMARK    6  A    between atoms: _8  and  _9
REMARK    7  A    between atoms: _18  and  _20
REMARK    8  A    between atoms: _20  and  _21
REMARK    9  A    between atoms: _20  and  _23
REMARK   10  A    between atoms: _23  and  _24
REMARK   11  A    between atoms: _27  and  _29
REMARK   12  A    between atoms: _29  and  _30
REMARK   13  A    between atoms: _29  and  _32
REMARK   14  A    between atoms: _32  and  _33
REMARK   15  A    between atoms: _36  and  _38
REMARK   16  A    between atoms: _38  and  _39
REMARK   17  A    between atoms: _38  and  _41
REMARK   18  A    between atoms: _41  and  _42
REMARK   19  A    between atoms: _45  and  _47
REMARK   20  A    between atoms: _47  and  _48
REMARK   21  A    between atoms: _47  and  _50
REMARK   22  A    between atoms: _50  and  _51
REMARK   23  A    between atoms: _54  and  _56
REMARK   24  A    between atoms: _56  and  _57
REMARK   25  A    between atoms: _59  and  _61
REMARK   26  A    between atoms: _61  and  _62
REMARK   27  A    between atoms: _65  and  _67
REMARK   28  A    between atoms: _67  and  _68
REMARK   29  A    between atoms: _67  and  _70
REMARK   30  A    between atoms: _70  and  _71
REMARK   31  A    between atoms: _74  and  _76
REMARK   32  A    between atoms: _76  and  _77
REMARK   33  A    between atoms: _76  and  _79
REMARK   34  A    between atoms: _79  and  _80
REMARK   35  A    between atoms: _83  and  _85
REMARK   36  A    between atoms: _85  and  _86
REMARK   37  A    between atoms: _85  and  _88
REMARK   38  A    between atoms: _88  and  _89
REMARK   39  A    between atoms: _92  and  _94
REMARK   40  A    between atoms: _94  and  _95
REMARK   41  A    between atoms: _94  and  _97
REMARK   42  A    between atoms: _100  and  _102
REMARK   43  A    between atoms: _102  and  _103
REMARK   44  A    between atoms: _102  and  _105
REMARK   45  A    between atoms: _105  and  _106
REMARK   46  A    between atoms: _106  and  _107
REMARK   47  A    between atoms: _107  and  _108
REMARK   48  A    between atoms: _108  and  _109
REMARK   49  A    between atoms: _113  and  _115
REMARK   50  A    between atoms: _115  and  _116
REMARK   51  A    between atoms: _115  and  _118
REMARK   52  A    between atoms: _118  and  _119
REMARK   53  A    between atoms: _119  and  _120
REMARK   54  A    between atoms: _122  and  _124
REMARK   55  A    between atoms: _124  and  _125
REMARK   56  A    between atoms: _124  and  _127
REMARK   57  A    between atoms: _127  and  _128
REMARK   58  A    between atoms: _131  and  _133
REMARK   59  A    between atoms: _133  and  _134
REMARK   60  A    between atoms: _136  and  _138
REMARK   61  A    between atoms: _138  and  _139
REMARK   62  A    between atoms: _141  and  _143
REMARK   63  A    between atoms: _143  and  _144
REMARK   64  A    between atoms: _143  and  _146
REMARK   65  A    between atoms: _146  and  _147
REMARK   66  A    between atoms: _150  and  _152
REMARK   67  A    between atoms: _152  and  _153
REMARK   68  A    between atoms: _155  and  _157
REMARK   69  A    between atoms: _157  and  _158
REMARK   70  A    between atoms: _160  and  _162
REMARK   71  A    between atoms: _162  and  _163
REMARK   72  A    between atoms: _162  and  _165
REMARK   73  A    between atoms: _165  and  _166
REMARK   74  A    between atoms: _172  and  _174
REMARK   75  A    between atoms: _174  and  _175
REMARK   76  A    between atoms: _174  and  _177
REMARK   77  A    between atoms: _180  and  _182
REMARK   78  A    between atoms: _182  and  _183
REMARK   79  A    between atoms: _182  and  _185
REMARK   80  A    between atoms: _188  and  _190
REMARK   81  A    between atoms: _190  and  _191
REMARK   82  A    between atoms: _190  and  _193
REMARK   83  A    between atoms: _193  and  _194
REMARK   84  A    between atoms: _198  and  _199
REMARK   85  A    between atoms: _204  and  _206
REMARK   86  A    between atoms: _206  and  _207
REMARK   87  A    between atoms: _206  and  _209
REMARK   88  A    between atoms: _209  and  _210
REMARK   89  A    between atoms: _214  and  _215
REMARK   90  A    between atoms: _220  and  _222
REMARK   91  A    between atoms: _222  and  _223
REMARK   92  A    between atoms: _222  and  _225
REMARK   93  A    between atoms: _228  and  _230
REMARK   94  A    between atoms: _230  and  _231
REMARK   95  A    between atoms: _230  and  _233
REMARK   96  A    between atoms: _233  and  _234
REMARK   97  A    between atoms: _239  and  _241
REMARK   98  A    between atoms: _241  and  _242
REMARK   99  A    between atoms: _241  and  _244
REMARK  100  A    between atoms: _244  and  _245
REMARK  101  A    between atoms: _248  and  _250
REMARK  102  A    between atoms: _250  and  _251
REMARK  103  A    between atoms: _250  and  _253
REMARK  104  A    between atoms: _253  and  _254
REMARK  105  A    between atoms: _257  and  _259
REMARK  106  A    between atoms: _259  and  _260
REMARK  107  A    between atoms: _262  and  _264
REMARK  108  A    between atoms: _264  and  _265
REMARK  109  A    between atoms: _264  and  _267
REMARK  110  A    between atoms: _267  and  _268
REMARK  111  A    between atoms: _268  and  _269
REMARK  112  A    between atoms: _269  and  _270
REMARK  113  A    between atoms: _279  and  _281
REMARK  114  A    between atoms: _281  and  _282
REMARK  115  A    between atoms: _281  and  _284
REMARK  116  A    between atoms: _284  and  _285
REMARK  117  A    between atoms: _290  and  _292
REMARK  118  A    between atoms: _292  and  _293
REMARK  119  A    between atoms: _292  and  _295
REMARK  120  A    between atoms: _295  and  _296
REMARK  121  A    between atoms: _296  and  _297
REMARK  122  A    between atoms: _297  and  _298
REMARK  123  A    between atoms: _307  and  _309
REMARK  124  A    between atoms: _309  and  _310
REMARK  125  A    between atoms: _309  and  _312
REMARK  126  A    between atoms: _312  and  _313
REMARK  127  A    between atoms: _316  and  _318
REMARK  128  A    between atoms: _318  and  _319
REMARK  129  A    between atoms: _318  and  _321
REMARK  130  A    between atoms: _321  and  _322
REMARK  131  A    between atoms: _325  and  _327
REMARK  132  A    between atoms: _327  and  _328
REMARK  133  A    between atoms: _327  and  _330
REMARK  134  A    between atoms: _330  and  _331
REMARK  135  A    between atoms: _334  and  _336
REMARK  136  A    between atoms: _336  and  _337
REMARK  137  A    between atoms: _336  and  _339
REMARK  138  A    between atoms: _339  and  _340
REMARK  139  A    between atoms: _343  and  _345
REMARK  140  A    between atoms: _345  and  _346
REMARK  141  A    between atoms: _348  and  _350
REMARK  142  A    between atoms: _350  and  _351
REMARK  143  A    between atoms: _354  and  _356
REMARK  144  A    between atoms: _356  and  _357
REMARK  145  A    between atoms: _356  and  _359
REMARK  146  A    between atoms: _359  and  _360
REMARK  147  A    between atoms: _363  and  _365
REMARK  148  A    between atoms: _365  and  _366
REMARK  149  A    between atoms: _365  and  _368
REMARK  150  A    between atoms: _368  and  _369
REMARK  151  A    between atoms: _372  and  _374
REMARK  152  A    between atoms: _374  and  _375
REMARK  153  A    between atoms: _374  and  _377
REMARK  154  A    between atoms: _377  and  _378
REMARK  155  A    between atoms: _381  and  _383
REMARK  156  A    between atoms: _383  and  _384
REMARK  157  A    between atoms: _383  and  _386
REMARK  158  A    between atoms: _389  and  _391
REMARK  159  A    between atoms: _391  and  _392
REMARK  160  A    between atoms: _391  and  _394
REMARK  161  A    between atoms: _394  and  _395
REMARK  162  A    between atoms: _395  and  _396
REMARK  163  A    between atoms: _396  and  _397
REMARK  164  A    between atoms: _397  and  _398
REMARK  165  A    between atoms: _402  and  _404
REMARK  166  A    between atoms: _404  and  _405
REMARK  167  A    between atoms: _404  and  _407
REMARK  168  A    between atoms: _407  and  _408
REMARK  169  A    between atoms: _408  and  _409
REMARK  170  A    between atoms: _411  and  _413
REMARK  171  A    between atoms: _413  and  _414
REMARK  172  A    between atoms: _413  and  _416
REMARK  173  A    between atoms: _416  and  _417
REMARK  174  A    between atoms: _420  and  _422
REMARK  175  A    between atoms: _422  and  _423
REMARK  176  A    between atoms: _425  and  _427
REMARK  177  A    between atoms: _427  and  _428
REMARK  178  A    between atoms: _430  and  _432
REMARK  179  A    between atoms: _432  and  _433
REMARK  180  A    between atoms: _432  and  _435
REMARK  181  A    between atoms: _435  and  _436
REMARK  182  A    between atoms: _439  and  _441
REMARK  183  A    between atoms: _441  and  _442
REMARK  184  A    between atoms: _444  and  _446
REMARK  185  A    between atoms: _446  and  _447
REMARK  186  A    between atoms: _449  and  _451
REMARK  187  A    between atoms: _451  and  _452
REMARK  188  A    between atoms: _451  and  _454
REMARK  189  A    between atoms: _454  and  _455
REMARK  190  A    between atoms: _461  and  _463
REMARK  191  A    between atoms: _463  and  _464
REMARK  192  A    between atoms: _463  and  _466
REMARK  193  A    between atoms: _469  and  _471
REMARK  194  A    between atoms: _471  and  _472
REMARK  195  A    between atoms: _471  and  _474
REMARK  196  A    between atoms: _477  and  _479
REMARK  197  A    between atoms: _479  and  _480
REMARK  198  A    between atoms: _479  and  _482
REMARK  199  A    between atoms: _482  and  _483
REMARK  200  A    between atoms: _487  and  _488
REMARK  201  A    between atoms: _493  and  _495
REMARK  202  A    between atoms: _495  and  _496
REMARK  203  A    between atoms: _495  and  _498
REMARK  204  A    between atoms: _498  and  _499
REMARK  205  A    between atoms: _503  and  _504
REMARK  206  A    between atoms: _509  and  _511
REMARK  207  A    between atoms: _511  and  _512
REMARK  208  A    between atoms: _511  and  _514
REMARK  209  A    between atoms: _517  and  _519
REMARK  210  A    between atoms: _519  and  _520
REMARK  211  A    between atoms: _519  and  _522
REMARK  212  A    between atoms: _522  and  _523
REMARK  213  A    between atoms: _528  and  _530
REMARK  214  A    between atoms: _530  and  _531
REMARK  215  A    between atoms: _530  and  _533
REMARK  216  A    between atoms: _533  and  _534
REMARK  217  A    between atoms: _537  and  _539
REMARK  218  A    between atoms: _539  and  _540
REMARK  219  A    between atoms: _539  and  _542
REMARK  220  A    between atoms: _542  and  _543
REMARK  221  A    between atoms: _546  and  _548
REMARK  222  A    between atoms: _548  and  _549
REMARK  223  A    between atoms: _551  and  _553
REMARK  224  A    between atoms: _553  and  _554
REMARK  225  A    between atoms: _553  and  _556
REMARK  226  A    between atoms: _556  and  _557
REMARK  227  A    between atoms: _557  and  _558
REMARK  228  A    between atoms: _558  and  _559
REMARK                            x       y       z     vdW  Elec       q    Type
REMARK                         _______ _______ _______ _____ _____    ______ ____
ROOT
ATOM      1  O   HOH     1      24.941  32.682  15.881  0.00  0.00    +0.000 OA
ENDROOT
TORSDOF 0
REMARK  Name = ../refined-set-2016/3d1y/3d1y_pocket.pdb
REMARK  228 active torsions:
REMARK  status: ('A' for Active; 'I' for Inactive)
REMARK    1  A    between atoms: _1  and  _3
REMARK    2  A    between atoms: _3  and  _4
REMARK    3  A    between atoms: _3  and  _6
REMARK    4  A    between atoms: _6  and  _7
REMARK    5  A    between atoms: _7  and  _8
REMARK    6  A    between atoms: _8  and  _9
REMARK    7  A    between atoms: _18  and  _20
REMARK    8  A    between atoms: _20  and  _21
REMARK    9  A    between atoms: _20  and  _23
REMARK   10  A    between atoms: _23  and  _24
REMARK   11  A    between atoms: _27  and  _29
REMARK   12  A    between atoms: _29  and  _30
REMARK   13  A    between atoms: _29  and  _32
REMARK   14  A    between atoms: _32  and  _33
REMARK   15  A    between atoms: _36  and  _38
REMARK   16  A    between atoms: _38  and  _39
REMARK   17  A    between atoms: _38  and  _41
REMARK   18  A    between atoms: _41  and  _42
REMARK   19  A    between atoms: _45  and  _47
REMARK   20  A    between atoms: _47  and  _48
REMARK   21  A    between atoms: _47  and  _50
REMARK   22  A    between atoms: _50  and  _51
REMARK   23  A    between atoms: _54  and  _56
REMARK   24  A    between atoms: _56  and  _57
REMARK   25  A    between atoms: _59  and  _61
REMARK   26  A    between atoms: _61  and  _62
REMARK   27  A    between atoms: _65  and  _67
REMARK   28  A    between atoms: _67  and  _68
REMARK   29  A    between atoms: _67  and  _70
REMARK   30  A    between atoms: _70  and  _71
REMARK   31  A    between atoms: _74  and  _76
REMARK   32  A    between atoms: _76  and  _77
REMARK   33  A    between atoms: _76  and  _79
REMARK   34  A    between atoms: _79  and  _80
REMARK   35  A    between atoms: _83  and  _85
REMARK   36  A    between atoms: _85  and  _86
REMARK   37  A    between atoms: _85  and  _88
REMARK   38  A    between atoms: _88  and  _89
REMARK   39  A    between atoms: _92  and  _94
REMARK   40  A    between atoms: _94  and  _95
REMARK   41  A    between atoms: _94  and  _97
REMARK   42  A    between atoms: _100  and  _102
REMARK   43  A    between atoms: _102  and  _103
REMARK   44  A    between atoms: _102  and  _105
REMARK   45  A    between atoms: _105  and  _106
REMARK   46  A    between atoms: _106  and  _107
REMARK   47  A    between atoms: _107  and  _108
REMARK   48  A    between atoms: _108  and  _109
REMARK   49  A    between atoms: _113  and  _115
REMARK   50  A    between atoms: _115  and  _116
REMARK   51  A    between atoms: _115  and  _118
REMARK   52  A    between atoms: _118  and  _119
REMARK   53  A    between atoms: _119  and  _120
REMARK   54  A    between atoms: _122  and  _124
REMARK   55  A    between atoms: _124  and  _125
REMARK   56  A    between atoms: _124  and  _127
REMARK   57  A    between atoms: _127  and  _128
REMARK   58  A    between atoms: _131  and  _133
REMARK   59  A    between atoms: _133  and  _134
REMARK   60  A    between atoms: _136  and  _138
REMARK   61  A    between atoms: _138  and  _139
REMARK   62  A    between atoms: _141  and  _143
REMARK   63  A    between atoms: _143  and  _144
REMARK   64  A    between atoms: _143  and  _146
REMARK   65  A    between atoms: _146  and  _147
REMARK   66  A    between atoms: _150  and  _152
REMARK   67  A    between atoms: _152  and  _153
REMARK   68  A    between atoms: _155  and  _157
REMARK   69  A    between atoms: _157  and  _158
REMARK   70  A    between atoms: _160  and  _162
REMARK   71  A    between atoms: _162  and  _163
REMARK   72  A    between atoms: _162  and  _165
REMARK   73  A    between atoms: _165  and  _166
REMARK   74  A    between atoms: _172  and  _174
REMARK   75  A    between atoms: _174  and  _175
REMARK   76  A    between atoms: _174  and  _177
REMARK   77  A    between atoms: _180  and  _182
REMARK   78  A    between atoms: _182  and  _183
REMARK   79  A    between atoms: _182  and  _185
REMARK   80  A    between atoms: _188  and  _190
REMARK   81  A    between atoms: _190  and  _191
REMARK   82  A    between atoms: _190  and  _193
REMARK   83  A    between atoms: _193  and  _194
REMARK   84  A    between atoms: _198  and  _199
REMARK   85  A    between atoms: _204  and  _206
REMARK   86  A    between atoms: _206  and  _207
REMARK   87  A    between atoms: _206  and  _209
REMARK   88  A    between atoms: _209  and  _210
REMARK   89  A    between atoms: _214  and  _215
REMARK   90  A    between atoms: _220  and  _222
REMARK   91  A    between atoms: _222  and  _223
REMARK   92  A    between atoms: _222  and  _225
REMARK   93  A    between atoms: _228  and  _230
REMARK   94  A    between atoms: _230  and  _231
REMARK   95  A    between atoms: _230  and  _233
REMARK   96  A    between atoms: _233  and  _234
REMARK   97  A    between atoms: _239  and  _241
REMARK   98  A    between atoms: _241  and  _242
REMARK   99  A    between atoms: _241  and  _244
REMARK  100  A    between atoms: _244  and  _245
REMARK  101  A    between atoms: _248  and  _250
REMARK  102  A    between atoms: _250  and  _251
REMARK  103  A    between atoms: _250  and  _253
REMARK  104  A    between atoms: _253  and  _254
REMARK  105  A    between atoms: _257  and  _259
REMARK  106  A    between atoms: _259  and  _260
REMARK  107  A    between atoms: _262  and  _264
REMARK  108  A    between atoms: _264  and  _265
REMARK  109  A    between atoms: _264  and  _267
REMARK  110  A    between atoms: _267  and  _268
REMARK  111  A    between atoms: _268  and  _269
REMARK  112  A    between atoms: _269  and  _270
REMARK  113  A    between atoms: _279  and  _281
REMARK  114  A    between atoms: _281  and  _282
REMARK  115  A    between atoms: _281  and  _284
REMARK  116  A    between atoms: _284  and  _285
REMARK  117  A    between atoms: _290  and  _292
REMARK  118  A    between atoms: _292  and  _293
REMARK  119  A    between atoms: _292  and  _295
REMARK  120  A    between atoms: _295  and  _296
REMARK  121  A    between atoms: _296  and  _297
REMARK  122  A    between atoms: _297  and  _298
REMARK  123  A    between atoms: _307  and  _309
REMARK  124  A    between atoms: _309  and  _310
REMARK  125  A    between atoms: _309  and  _312
REMARK  126  A    between atoms: _312  and  _313
REMARK  127  A    between atoms: _316  and  _318
REMARK  128  A    between atoms: _318  and  _319
REMARK  129  A    between atoms: _318  and  _321
REMARK  130  A    between atoms: _321  and  _322
REMARK  131  A    between atoms: _325  and  _327
REMARK  132  A    between atoms: _327  and  _328
REMARK  133  A    between atoms: _327  and  _330
REMARK  134  A    between atoms: _330  and  _331
REMARK  135  A    between atoms: _334  and  _336
REMARK  136  A    between atoms: _336  and  _337
REMARK  137  A    between atoms: _336  and  _339
REMARK  138  A    between atoms: _339  and  _340
REMARK  139  A    between atoms: _343  and  _345
REMARK  140  A    between atoms: _345  and  _346
REMARK  141  A    between atoms: _348  and  _350
REMARK  142  A    between atoms: _350  and  _351
REMARK  143  A    between atoms: _354  and  _356
REMARK  144  A    between atoms: _356  and  _357
REMARK  145  A    between atoms: _356  and  _359
REMARK  146  A    between atoms: _359  and  _360
REMARK  147  A    between atoms: _363  and  _365
REMARK  148  A    between atoms: _365  and  _366
REMARK  149  A    between atoms: _365  and  _368
REMARK  150  A    between atoms: _368  and  _369
REMARK  151  A    between atoms: _372  and  _374
REMARK  152  A    between atoms: _374  and  _375
REMARK  153  A    between atoms: _374  and  _377
REMARK  154  A    between atoms: _377  and  _378
REMARK  155  A    between atoms: _381  and  _383
REMARK  156  A    between atoms: _383  and  _384
REMARK  157  A    between atoms: _383  and  _386
REMARK  158  A    between atoms: _389  and  _391
REMARK  159  A    between atoms: _391  and  _392
REMARK  160  A    between atoms: _391  and  _394
REMARK  161  A    between atoms: _394  and  _395
REMARK  162  A    between atoms: _395  and  _396
REMARK  163  A    between atoms: _396  and  _397
REMARK  164  A    between atoms: _397  and  _398
REMARK  165  A    between atoms: _402  and  _404
REMARK  166  A    between atoms: _404  and  _405
REMARK  167  A    between atoms: _404  and  _407
REMARK  168  A    between atoms: _407  and  _408
REMARK  169  A    between atoms: _408  and  _409
REMARK  170  A    between atoms: _411  and  _413
REMARK  171  A    between atoms: _413  and  _414
REMARK  172  A    between atoms: _413  and  _416
REMARK  173  A    between atoms: _416  and  _417
REMARK  174  A    between atoms: _420  and  _422
REMARK  175  A    between atoms: _422  and  _423
REMARK  176  A    between atoms: _425  and  _427
REMARK  177  A    between atoms: _427  and  _428
REMARK  178  A    between atoms: _430  and  _432
REMARK  179  A    between atoms: _432  and  _433
REMARK  180  A    between atoms: _432  and  _435
REMARK  181  A    between atoms: _435  and  _436
REMARK  182  A    between atoms: _439  and  _441
REMARK  183  A    between atoms: _441  and  _442
REMARK  184  A    between atoms: _444  and  _446
REMARK  185  A    between atoms: _446  and  _447
REMARK  186  A    between atoms: _449  and  _451
REMARK  187  A    between atoms: _451  and  _452
REMARK  188  A    between atoms: _451  and  _454
REMARK  189  A    between atoms: _454  and  _455
REMARK  190  A    between atoms: _461  and  _463
REMARK  191  A    between atoms: _463  and  _464
REMARK  192  A    between atoms: _463  and  _466
REMARK  193  A    between atoms: _469  and  _471
REMARK  194  A    between atoms: _471  and  _472
REMARK  195  A    between atoms: _471  and  _474
REMARK  196  A    between atoms: _477  and  _479
REMARK  197  A    between atoms: _479  and  _480
REMARK  198  A    between atoms: _479  and  _482
REMARK  199  A    between atoms: _482  and  _483
REMARK  200  A    between atoms: _487  and  _488
REMARK  201  A    between atoms: _493  and  _495
REMARK  202  A    between atoms: _495  and  _496
REMARK  203  A    between atoms: _495  and  _498
REMARK  204  A    between atoms: _498  and  _499
REMARK  205  A    between atoms: _503  and  _504
REMARK  206  A    between atoms: _509  and  _511
REMARK  207  A    between atoms: _511  and  _512
REMARK  208  A    between atoms: _511  and  _514
REMARK  209  A    between atoms: _517  and  _519
REMARK  210  A    between atoms: _519  and  _520
REMARK  211  A    between atoms: _519  and  _522
REMARK  212  A    between atoms: _522  and  _523
REMARK  213  A    between atoms: _528  and  _530
REMARK  214  A    between atoms: _530  and  _531
REMARK  215  A    between atoms: _530  and  _533
REMARK  216  A    between atoms: _533  and  _534
REMARK  217  A    between atoms: _537  and  _539
REMARK  218  A    between atoms: _539  and  _540
REMARK  219  A    between atoms: _539  and  _542
REMARK  220  A    between atoms: _542  and  _543
REMARK  221  A    between atoms: _546  and  _548
REMARK  222  A    between atoms: _548  and  _549
REMARK  223  A    between atoms: _551  and  _553
REMARK  224  A    between atoms: _553  and  _554
REMARK  225  A    between atoms: _553  and  _556
REMARK  226  A    between atoms: _556  and  _557
REMARK  227  A    between atoms: _557  and  _558
REMARK  228  A    between atoms: _558  and  _559
REMARK                            x       y       z     vdW  Elec       q    Type
REMARK                         _______ _______ _______ _____ _____    ______ ____
ROOT
ATOM      1  O   HOH     1      27.698  28.258  14.020  0.00  0.00    +0.000 OA
ENDROOT
TORSDOF 0
REMARK  Name = ../refined-set-2016/3d1y/3d1y_pocket.pdb
REMARK  228 active torsions:
REMARK  status: ('A' for Active; 'I' for Inactive)
REMARK    1  A    between atoms: _1  and  _3
REMARK    2  A    between atoms: _3  and  _4
REMARK    3  A    between atoms: _3  and  _6
REMARK    4  A    between atoms: _6  and  _7
REMARK    5  A    between atoms: _7  and  _8
REMARK    6  A    between atoms: _8  and  _9
REMARK    7  A    between atoms: _18  and  _20
REMARK    8  A    between atoms: _20  and  _21
REMARK    9  A    between atoms: _20  and  _23
REMARK   10  A    between atoms: _23  and  _24
REMARK   11  A    between atoms: _27  and  _29
REMARK   12  A    between atoms: _29  and  _30
REMARK   13  A    between atoms: _29  and  _32
REMARK   14  A    between atoms: _32  and  _33
REMARK   15  A    between atoms: _36  and  _38
REMARK   16  A    between atoms: _38  and  _39
REMARK   17  A    between atoms: _38  and  _41
REMARK   18  A    between atoms: _41  and  _42
REMARK   19  A    between atoms: _45  and  _47
REMARK   20  A    between atoms: _47  and  _48
REMARK   21  A    between atoms: _47  and  _50
REMARK   22  A    between atoms: _50  and  _51
REMARK   23  A    between atoms: _54  and  _56
REMARK   24  A    between atoms: _56  and  _57
REMARK   25  A    between atoms: _59  and  _61
REMARK   26  A    between atoms: _61  and  _62
REMARK   27  A    between atoms: _65  and  _67
REMARK   28  A    between atoms: _67  and  _68
REMARK   29  A    between atoms: _67  and  _70
REMARK   30  A    between atoms: _70  and  _71
REMARK   31  A    between atoms: _74  and  _76
REMARK   32  A    between atoms: _76  and  _77
REMARK   33  A    between atoms: _76  and  _79
REMARK   34  A    between atoms: _79  and  _80
REMARK   35  A    between atoms: _83  and  _85
REMARK   36  A    between atoms: _85  and  _86
REMARK   37  A    between atoms: _85  and  _88
REMARK   38  A    between atoms: _88  and  _89
REMARK   39  A    between atoms: _92  and  _94
REMARK   40  A    between atoms: _94  and  _95
REMARK   41  A    between atoms: _94  and  _97
REMARK   42  A    between atoms: _100  and  _102
REMARK   43  A    between atoms: _102  and  _103
REMARK   44  A    between atoms: _102  and  _105
REMARK   45  A    between atoms: _105  and  _106
REMARK   46  A    between atoms: _106  and  _107
REMARK   47  A    between atoms: _107  and  _108
REMARK   48  A    between atoms: _108  and  _109
REMARK   49  A    between atoms: _113  and  _115
REMARK   50  A    between atoms: _115  and  _116
REMARK   51  A    between atoms: _115  and  _118
REMARK   52  A    between atoms: _118  and  _119
REMARK   53  A    between atoms: _119  and  _120
REMARK   54  A    between atoms: _122  and  _124
REMARK   55  A    between atoms: _124  and  _125
REMARK   56  A    between atoms: _124  and  _127
REMARK   57  A    between atoms: _127  and  _128
REMARK   58  A    between atoms: _131  and  _133
REMARK   59  A    between atoms: _133  and  _134
REMARK   60  A    between atoms: _136  and  _138
REMARK   61  A    between atoms: _138  and  _139
REMARK   62  A    between atoms: _141  and  _143
REMARK   63  A    between atoms: _143  and  _144
REMARK   64  A    between atoms: _143  and  _146
REMARK   65  A    between atoms: _146  and  _147
REMARK   66  A    between atoms: _150  and  _152
REMARK   67  A    between atoms: _152  and  _153
REMARK   68  A    between atoms: _155  and  _157
REMARK   69  A    between atoms: _157  and  _158
REMARK   70  A    between atoms: _160  and  _162
REMARK   71  A    between atoms: _162  and  _163
REMARK   72  A    between atoms: _162  and  _165
REMARK   73  A    between atoms: _165  and  _166
REMARK   74  A    between atoms: _172  and  _174
REMARK   75  A    between atoms: _174  and  _175
REMARK   76  A    between atoms: _174  and  _177
REMARK   77  A    between atoms: _180  and  _182
REMARK   78  A    between atoms: _182  and  _183
REMARK   79  A    between atoms: _182  and  _185
REMARK   80  A    between atoms: _188  and  _190
REMARK   81  A    between atoms: _190  and  _191
REMARK   82  A    between atoms: _190  and  _193
REMARK   83  A    between atoms: _193  and  _194
REMARK   84  A    between atoms: _198  and  _199
REMARK   85  A    between atoms: _204  and  _206
REMARK   86  A    between atoms: _206  and  _207
REMARK   87  A    between atoms: _206  and  _209
REMARK   88  A    between atoms: _209  and  _210
REMARK   89  A    between atoms: _214  and  _215
REMARK   90  A    between atoms: _220  and  _222
REMARK   91  A    between atoms: _222  and  _223
REMARK   92  A    between atoms: _222  and  _225
REMARK   93  A    between atoms: _228  and  _230
REMARK   94  A    between atoms: _230  and  _231
REMARK   95  A    between atoms: _230  and  _233
REMARK   96  A    between atoms: _233  and  _234
REMARK   97  A    between atoms: _239  and  _241
REMARK   98  A    between atoms: _241  and  _242
REMARK   99  A    between atoms: _241  and  _244
REMARK  100  A    between atoms: _244  and  _245
REMARK  101  A    between atoms: _248  and  _250
REMARK  102  A    between atoms: _250  and  _251
REMARK  103  A    between atoms: _250  and  _253
REMARK  104  A    between atoms: _253  and  _254
REMARK  105  A    between atoms: _257  and  _259
REMARK  106  A    between atoms: _259  and  _260
REMARK  107  A    between atoms: _262  and  _264
REMARK  108  A    between atoms: _264  and  _265
REMARK  109  A    between atoms: _264  and  _267
REMARK  110  A    between atoms: _267  and  _268
REMARK  111  A    between atoms: _268  and  _269
REMARK  112  A    between atoms: _269  and  _270
REMARK  113  A    between atoms: _279  and  _281
REMARK  114  A    between atoms: _281  and  _282
REMARK  115  A    between atoms: _281  and  _284
REMARK  116  A    between atoms: _284  and  _285
REMARK  117  A    between atoms: _290  and  _292
REMARK  118  A    between atoms: _292  and  _293
REMARK  119  A    between atoms: _292  and  _295
REMARK  120  A    between atoms: _295  and  _296
REMARK  121  A    between atoms: _296  and  _297
REMARK  122  A    between atoms: _297  and  _298
REMARK  123  A    between atoms: _307  and  _309
REMARK  124  A    between atoms: _309  and  _310
REMARK  125  A    between atoms: _309  and  _312
REMARK  126  A    between atoms: _312  and  _313
REMARK  127  A    between atoms: _316  and  _318
REMARK  128  A    between atoms: _318  and  _319
REMARK  129  A    between atoms: _318  and  _321
REMARK  130  A    between atoms: _321  and  _322
REMARK  131  A    between atoms: _325  and  _327
REMARK  132  A    between atoms: _327  and  _328
REMARK  133  A    between atoms: _327  and  _330
REMARK  134  A    between atoms: _330  and  _331
REMARK  135  A    between atoms: _334  and  _336
REMARK  136  A    between atoms: _336  and  _337
REMARK  137  A    between atoms: _336  and  _339
REMARK  138  A    between atoms: _339  and  _340
REMARK  139  A    between atoms: _343  and  _345
REMARK  140  A    between atoms: _345  and  _346
REMARK  141  A    between atoms: _348  and  _350
REMARK  142  A    between atoms: _350  and  _351
REMARK  143  A    between atoms: _354  and  _356
REMARK  144  A    between atoms: _356  and  _357
REMARK  145  A    between atoms: _356  and  _359
REMARK  146  A    between atoms: _359  and  _360
REMARK  147  A    between atoms: _363  and  _365
REMARK  148  A    between atoms: _365  and  _366
REMARK  149  A    between atoms: _365  and  _368
REMARK  150  A    between atoms: _368  and  _369
REMARK  151  A    between atoms: _372  and  _374
REMARK  152  A    between atoms: _374  and  _375
REMARK  153  A    between atoms: _374  and  _377
REMARK  154  A    between atoms: _377  and  _378
REMARK  155  A    between atoms: _381  and  _383
REMARK  156  A    between atoms: _383  and  _384
REMARK  157  A    between atoms: _383  and  _386
REMARK  158  A    between atoms: _389  and  _391
REMARK  159  A    between atoms: _391  and  _392
REMARK  160  A    between atoms: _391  and  _394
REMARK  161  A    between atoms: _394  and  _395
REMARK  162  A    between atoms: _395  and  _396
REMARK  163  A    between atoms: _396  and  _397
REMARK  164  A    between atoms: _397  and  _398
REMARK  165  A    between atoms: _402  and  _404
REMARK  166  A    between atoms: _404  and  _405
REMARK  167  A    between atoms: _404  and  _407
REMARK  168  A    between atoms: _407  and  _408
REMARK  169  A    between atoms: _408  and  _409
REMARK  170  A    between atoms: _411  and  _413
REMARK  171  A    between atoms: _413  and  _414
REMARK  172  A    between atoms: _413  and  _416
REMARK  173  A    between atoms: _416  and  _417
REMARK  174  A    between atoms: _420  and  _422
REMARK  175  A    between atoms: _422  and  _423
REMARK  176  A    between atoms: _425  and  _427
REMARK  177  A    between atoms: _427  and  _428
REMARK  178  A    between atoms: _430  and  _432
REMARK  179  A    between atoms: _432  and  _433
REMARK  180  A    between atoms: _432  and  _435
REMARK  181  A    between atoms: _435  and  _436
REMARK  182  A    between atoms: _439  and  _441
REMARK  183  A    between atoms: _441  and  _442
REMARK  184  A    between atoms: _444  and  _446
REMARK  185  A    between atoms: _446  and  _447
REMARK  186  A    between atoms: _449  and  _451
REMARK  187  A    between atoms: _451  and  _452
REMARK  188  A    between atoms: _451  and  _454
REMARK  189  A    between atoms: _454  and  _455
REMARK  190  A    between atoms: _461  and  _463
REMARK  191  A    between atoms: _463  and  _464
REMARK  192  A    between atoms: _463  and  _466
REMARK  193  A    between atoms: _469  and  _471
REMARK  194  A    between atoms: _471  and  _472
REMARK  195  A    between atoms: _471  and  _474
REMARK  196  A    between atoms: _477  and  _479
REMARK  197  A    between atoms: _479  and  _480
REMARK  198  A    between atoms: _479  and  _482
REMARK  199  A    between atoms: _482  and  _483
REMARK  200  A    between atoms: _487  and  _488
REMARK  201  A    between atoms: _493  and  _495
REMARK  202  A    between atoms: _495  and  _496
REMARK  203  A    between atoms: _495  and  _498
REMARK  204  A    between atoms: _498  and  _499
REMARK  205  A    between atoms: _503  and  _504
REMARK  206  A    between atoms: _509  and  _511
REMARK  207  A    between atoms: _511  and  _512
REMARK  208  A    between atoms: _511  and  _514
REMARK  209  A    between atoms: _517  and  _519
REMARK  210  A    between atoms: _519  and  _520
REMARK  211  A    between atoms: _519  and  _522
REMARK  212  A    between atoms: _522  and  _523
REMARK  213  A    between atoms: _528  and  _530
REMARK  214  A    between atoms: _530  and  _531
REMARK  215  A    between atoms: _530  and  _533
REMARK  216  A    between atoms: _533  and  _534
REMARK  217  A    between atoms: _537  and  _539
REMARK  218  A    between atoms: _539  and  _540
REMARK  219  A    between atoms: _539  and  _542
REMARK  220  A    between atoms: _542  and  _543
REMARK  221  A    between atoms: _546  and  _548
REMARK  222  A    between atoms: _548  and  _549
REMARK  223  A    between atoms: _551  and  _553
REMARK  224  A    between atoms: _553  and  _554
REMARK  225  A    between atoms: _553  and  _556
REMARK  226  A    between atoms: _556  and  _557
REMARK  227  A    between atoms: _557  and  _558
REMARK  228  A    between atoms: _558  and  _559
REMARK                            x       y       z     vdW  Elec       q    Type
REMARK                         _______ _______ _______ _____ _____    ______ ____
ROOT
ATOM      1  O   HOH     1      12.591  23.183   5.619  0.00  0.00    +0.000 OA
ENDROOT
TORSDOF 0
REMARK  Name = ../refined-set-2016/3d1y/3d1y_pocket.pdb
REMARK  228 active torsions:
REMARK  status: ('A' for Active; 'I' for Inactive)
REMARK    1  A    between atoms: _1  and  _3
REMARK    2  A    between atoms: _3  and  _4
REMARK    3  A    between atoms: _3  and  _6
REMARK    4  A    between atoms: _6  and  _7
REMARK    5  A    between atoms: _7  and  _8
REMARK    6  A    between atoms: _8  and  _9
REMARK    7  A    between atoms: _18  and  _20
REMARK    8  A    between atoms: _20  and  _21
REMARK    9  A    between atoms: _20  and  _23
REMARK   10  A    between atoms: _23  and  _24
REMARK   11  A    between atoms: _27  and  _29
REMARK   12  A    between atoms: _29  and  _30
REMARK   13  A    between atoms: _29  and  _32
REMARK   14  A    between atoms: _32  and  _33
REMARK   15  A    between atoms: _36  and  _38
REMARK   16  A    between atoms: _38  and  _39
REMARK   17  A    between atoms: _38  and  _41
REMARK   18  A    between atoms: _41  and  _42
REMARK   19  A    between atoms: _45  and  _47
REMARK   20  A    between atoms: _47  and  _48
REMARK   21  A    between atoms: _47  and  _50
REMARK   22  A    between atoms: _50  and  _51
REMARK   23  A    between atoms: _54  and  _56
REMARK   24  A    between atoms: _56  and  _57
REMARK   25  A    between atoms: _59  and  _61
REMARK   26  A    between atoms: _61  and  _62
REMARK   27  A    between atoms: _65  and  _67
REMARK   28  A    between atoms: _67  and  _68
REMARK   29  A    between atoms: _67  and  _70
REMARK   30  A    between atoms: _70  and  _71
REMARK   31  A    between atoms: _74  and  _76
REMARK   32  A    between atoms: _76  and  _77
REMARK   33  A    between atoms: _76  and  _79
REMARK   34  A    between atoms: _79  and  _80
REMARK   35  A    between atoms: _83  and  _85
REMARK   36  A    between atoms: _85  and  _86
REMARK   37  A    between atoms: _85  and  _88
REMARK   38  A    between atoms: _88  and  _89
REMARK   39  A    between atoms: _92  and  _94
REMARK   40  A    between atoms: _94  and  _95
REMARK   41  A    between atoms: _94  and  _97
REMARK   42  A    between atoms: _100  and  _102
REMARK   43  A    between atoms: _102  and  _103
REMARK   44  A    between atoms: _102  and  _105
REMARK   45  A    between atoms: _105  and  _106
REMARK   46  A    between atoms: _106  and  _107
REMARK   47  A    between atoms: _107  and  _108
REMARK   48  A    between atoms: _108  and  _109
REMARK   49  A    between atoms: _113  and  _115
REMARK   50  A    between atoms: _115  and  _116
REMARK   51  A    between atoms: _115  and  _118
REMARK   52  A    between atoms: _118  and  _119
REMARK   53  A    between atoms: _119  and  _120
REMARK   54  A    between atoms: _122  and  _124
REMARK   55  A    between atoms: _124  and  _125
REMARK   56  A    between atoms: _124  and  _127
REMARK   57  A    between atoms: _127  and  _128
REMARK   58  A    between atoms: _131  and  _133
REMARK   59  A    between atoms: _133  and  _134
REMARK   60  A    between atoms: _136  and  _138
REMARK   61  A    between atoms: _138  and  _139
REMARK   62  A    between atoms: _141  and  _143
REMARK   63  A    between atoms: _143  and  _144
REMARK   64  A    between atoms: _143  and  _146
REMARK   65  A    between atoms: _146  and  _147
REMARK   66  A    between atoms: _150  and  _152
REMARK   67  A    between atoms: _152  and  _153
REMARK   68  A    between atoms: _155  and  _157
REMARK   69  A    between atoms: _157  and  _158
REMARK   70  A    between atoms: _160  and  _162
REMARK   71  A    between atoms: _162  and  _163
REMARK   72  A    between atoms: _162  and  _165
REMARK   73  A    between atoms: _165  and  _166
REMARK   74  A    between atoms: _172  and  _174
REMARK   75  A    between atoms: _174  and  _175
REMARK   76  A    between atoms: _174  and  _177
REMARK   77  A    between atoms: _180  and  _182
REMARK   78  A    between atoms: _182  and  _183
REMARK   79  A    between atoms: _182  and  _185
REMARK   80  A    between atoms: _188  and  _190
REMARK   81  A    between atoms: _190  and  _191
REMARK   82  A    between atoms: _190  and  _193
REMARK   83  A    between atoms: _193  and  _194
REMARK   84  A    between atoms: _198  and  _199
REMARK   85  A    between atoms: _204  and  _206
REMARK   86  A    between atoms: _206  and  _207
REMARK   87  A    between atoms: _206  and  _209
REMARK   88  A    between atoms: _209  and  _210
REMARK   89  A    between atoms: _214  and  _215
REMARK   90  A    between atoms: _220  and  _222
REMARK   91  A    between atoms: _222  and  _223
REMARK   92  A    between atoms: _222  and  _225
REMARK   93  A    between atoms: _228  and  _230
REMARK   94  A    between atoms: _230  and  _231
REMARK   95  A    between atoms: _230  and  _233
REMARK   96  A    between atoms: _233  and  _234
REMARK   97  A    between atoms: _239  and  _241
REMARK   98  A    between atoms: _241  and  _242
REMARK   99  A    between atoms: _241  and  _244
REMARK  100  A    between atoms: _244  and  _245
REMARK  101  A    between atoms: _248  and  _250
REMARK  102  A    between atoms: _250  and  _251
REMARK  103  A    between atoms: _250  and  _253
REMARK  104  A    between atoms: _253  and  _254
REMARK  105  A    between atoms: _257  and  _259
REMARK  106  A    between atoms: _259  and  _260
REMARK  107  A    between atoms: _262  and  _264
REMARK  108  A    between atoms: _264  and  _265
REMARK  109  A    between atoms: _264  and  _267
REMARK  110  A    between atoms: _267  and  _268
REMARK  111  A    between atoms: _268  and  _269
REMARK  112  A    between atoms: _269  and  _270
REMARK  113  A    between atoms: _279  and  _281
REMARK  114  A    between atoms: _281  and  _282
REMARK  115  A    between atoms: _281  and  _284
REMARK  116  A    between atoms: _284  and  _285
REMARK  117  A    between atoms: _290  and  _292
REMARK  118  A    between atoms: _292  and  _293
REMARK  119  A    between atoms: _292  and  _295
REMARK  120  A    between atoms: _295  and  _296
REMARK  121  A    between atoms: _296  and  _297
REMARK  122  A    between atoms: _297  and  _298
REMARK  123  A    between atoms: _307  and  _309
REMARK  124  A    between atoms: _309  and  _310
REMARK  125  A    between atoms: _309  and  _312
REMARK  126  A    between atoms: _312  and  _313
REMARK  127  A    between atoms: _316  and  _318
REMARK  128  A    between atoms: _318  and  _319
REMARK  129  A    between atoms: _318  and  _321
REMARK  130  A    between atoms: _321  and  _322
REMARK  131  A    between atoms: _325  and  _327
REMARK  132  A    between atoms: _327  and  _328
REMARK  133  A    between atoms: _327  and  _330
REMARK  134  A    between atoms: _330  and  _331
REMARK  135  A    between atoms: _334  and  _336
REMARK  136  A    between atoms: _336  and  _337
REMARK  137  A    between atoms: _336  and  _339
REMARK  138  A    between atoms: _339  and  _340
REMARK  139  A    between atoms: _343  and  _345
REMARK  140  A    between atoms: _345  and  _346
REMARK  141  A    between atoms: _348  and  _350
REMARK  142  A    between atoms: _350  and  _351
REMARK  143  A    between atoms: _354  and  _356
REMARK  144  A    between atoms: _356  and  _357
REMARK  145  A    between atoms: _356  and  _359
REMARK  146  A    between atoms: _359  and  _360
REMARK  147  A    between atoms: _363  and  _365
REMARK  148  A    between atoms: _365  and  _366
REMARK  149  A    between atoms: _365  and  _368
REMARK  150  A    between atoms: _368  and  _369
REMARK  151  A    between atoms: _372  and  _374
REMARK  152  A    between atoms: _374  and  _375
REMARK  153  A    between atoms: _374  and  _377
REMARK  154  A    between atoms: _377  and  _378
REMARK  155  A    between atoms: _381  and  _383
REMARK  156  A    between atoms: _383  and  _384
REMARK  157  A    between atoms: _383  and  _386
REMARK  158  A    between atoms: _389  and  _391
REMARK  159  A    between atoms: _391  and  _392
REMARK  160  A    between atoms: _391  and  _394
REMARK  161  A    between atoms: _394  and  _395
REMARK  162  A    between atoms: _395  and  _396
REMARK  163  A    between atoms: _396  and  _397
REMARK  164  A    between atoms: _397  and  _398
REMARK  165  A    between atoms: _402  and  _404
REMARK  166  A    between atoms: _404  and  _405
REMARK  167  A    between atoms: _404  and  _407
REMARK  168  A    between atoms: _407  and  _408
REMARK  169  A    between atoms: _408  and  _409
REMARK  170  A    between atoms: _411  and  _413
REMARK  171  A    between atoms: _413  and  _414
REMARK  172  A    between atoms: _413  and  _416
REMARK  173  A    between atoms: _416  and  _417
REMARK  174  A    between atoms: _420  and  _422
REMARK  175  A    between atoms: _422  and  _423
REMARK  176  A    between atoms: _425  and  _427
REMARK  177  A    between atoms: _427  and  _428
REMARK  178  A    between atoms: _430  and  _432
REMARK  179  A    between atoms: _432  and  _433
REMARK  180  A    between atoms: _432  and  _435
REMARK  181  A    between atoms: _435  and  _436
REMARK  182  A    between atoms: _439  and  _441
REMARK  183  A    between atoms: _441  and  _442
REMARK  184  A    between atoms: _444  and  _446
REMARK  185  A    between atoms: _446  and  _447
REMARK  186  A    between atoms: _449  and  _451
REMARK  187  A    between atoms: _451  and  _452
REMARK  188  A    between atoms: _451  and  _454
REMARK  189  A    between atoms: _454  and  _455
REMARK  190  A    between atoms: _461  and  _463
REMARK  191  A    between atoms: _463  and  _464
REMARK  192  A    between atoms: _463  and  _466
REMARK  193  A    between atoms: _469  and  _471
REMARK  194  A    between atoms: _471  and  _472
REMARK  195  A    between atoms: _471  and  _474
REMARK  196  A    between atoms: _477  and  _479
REMARK  197  A    between atoms: _479  and  _480
REMARK  198  A    between atoms: _479  and  _482
REMARK  199  A    between atoms: _482  and  _483
REMARK  200  A    between atoms: _487  and  _488
REMARK  201  A    between atoms: _493  and  _495
REMARK  202  A    between atoms: _495  and  _496
REMARK  203  A    between atoms: _495  and  _498
REMARK  204  A    between atoms: _498  and  _499
REMARK  205  A    between atoms: _503  and  _504
REMARK  206  A    between atoms: _509  and  _511
REMARK  207  A    between atoms: _511  and  _512
REMARK  208  A    between atoms: _511  and  _514
REMARK  209  A    between atoms: _517  and  _519
REMARK  210  A    between atoms: _519  and  _520
REMARK  211  A    between atoms: _519  and  _522
REMARK  212  A    between atoms: _522  and  _523
REMARK  213  A    between atoms: _528  and  _530
REMARK  214  A    between atoms: _530  and  _531
REMARK  215  A    between atoms: _530  and  _533
REMARK  216  A    between atoms: _533  and  _534
REMARK  217  A    between atoms: _537  and  _539
REMARK  218  A    between atoms: _539  and  _540
REMARK  219  A    between atoms: _539  and  _542
REMARK  220  A    between atoms: _542  and  _543
REMARK  221  A    between atoms: _546  and  _548
REMARK  222  A    between atoms: _548  and  _549
REMARK  223  A    between atoms: _551  and  _553
REMARK  224  A    between atoms: _553  and  _554
REMARK  225  A    between atoms: _553  and  _556
REMARK  226  A    between atoms: _556  and  _557
REMARK  227  A    between atoms: _557  and  _558
REMARK  228  A    between atoms: _558  and  _559
REMARK                            x       y       z     vdW  Elec       q    Type
REMARK                         _______ _______ _______ _____ _____    ______ ____
ROOT
ATOM      1  O   HOH     1      28.721  26.175  14.817  0.00  0.00    +0.000 OA
ENDROOT
TORSDOF 0
REMARK  Name = ../refined-set-2016/3d1y/3d1y_pocket.pdb
REMARK  228 active torsions:
REMARK  status: ('A' for Active; 'I' for Inactive)
REMARK    1  A    between atoms: _1  and  _3
REMARK    2  A    between atoms: _3  and  _4
REMARK    3  A    between atoms: _3  and  _6
REMARK    4  A    between atoms: _6  and  _7
REMARK    5  A    between atoms: _7  and  _8
REMARK    6  A    between atoms: _8  and  _9
REMARK    7  A    between atoms: _18  and  _20
REMARK    8  A    between atoms: _20  and  _21
REMARK    9  A    between atoms: _20  and  _23
REMARK   10  A    between atoms: _23  and  _24
REMARK   11  A    between atoms: _27  and  _29
REMARK   12  A    between atoms: _29  and  _30
REMARK   13  A    between atoms: _29  and  _32
REMARK   14  A    between atoms: _32  and  _33
REMARK   15  A    between atoms: _36  and  _38
REMARK   16  A    between atoms: _38  and  _39
REMARK   17  A    between atoms: _38  and  _41
REMARK   18  A    between atoms: _41  and  _42
REMARK   19  A    between atoms: _45  and  _47
REMARK   20  A    between atoms: _47  and  _48
REMARK   21  A    between atoms: _47  and  _50
REMARK   22  A    between atoms: _50  and  _51
REMARK   23  A    between atoms: _54  and  _56
REMARK   24  A    between atoms: _56  and  _57
REMARK   25  A    between atoms: _59  and  _61
REMARK   26  A    between atoms: _61  and  _62
REMARK   27  A    between atoms: _65  and  _67
REMARK   28  A    between atoms: _67  and  _68
REMARK   29  A    between atoms: _67  and  _70
REMARK   30  A    between atoms: _70  and  _71
REMARK   31  A    between atoms: _74  and  _76
REMARK   32  A    between atoms: _76  and  _77
REMARK   33  A    between atoms: _76  and  _79
REMARK   34  A    between atoms: _79  and  _80
REMARK   35  A    between atoms: _83  and  _85
REMARK   36  A    between atoms: _85  and  _86
REMARK   37  A    between atoms: _85  and  _88
REMARK   38  A    between atoms: _88  and  _89
REMARK   39  A    between atoms: _92  and  _94
REMARK   40  A    between atoms: _94  and  _95
REMARK   41  A    between atoms: _94  and  _97
REMARK   42  A    between atoms: _100  and  _102
REMARK   43  A    between atoms: _102  and  _103
REMARK   44  A    between atoms: _102  and  _105
REMARK   45  A    between atoms: _105  and  _106
REMARK   46  A    between atoms: _106  and  _107
REMARK   47  A    between atoms: _107  and  _108
REMARK   48  A    between atoms: _108  and  _109
REMARK   49  A    between atoms: _113  and  _115
REMARK   50  A    between atoms: _115  and  _116
REMARK   51  A    between atoms: _115  and  _118
REMARK   52  A    between atoms: _118  and  _119
REMARK   53  A    between atoms: _119  and  _120
REMARK   54  A    between atoms: _122  and  _124
REMARK   55  A    between atoms: _124  and  _125
REMARK   56  A    between atoms: _124  and  _127
REMARK   57  A    between atoms: _127  and  _128
REMARK   58  A    between atoms: _131  and  _133
REMARK   59  A    between atoms: _133  and  _134
REMARK   60  A    between atoms: _136  and  _138
REMARK   61  A    between atoms: _138  and  _139
REMARK   62  A    between atoms: _141  and  _143
REMARK   63  A    between atoms: _143  and  _144
REMARK   64  A    between atoms: _143  and  _146
REMARK   65  A    between atoms: _146  and  _147
REMARK   66  A    between atoms: _150  and  _152
REMARK   67  A    between atoms: _152  and  _153
REMARK   68  A    between atoms: _155  and  _157
REMARK   69  A    between atoms: _157  and  _158
REMARK   70  A    between atoms: _160  and  _162
REMARK   71  A    between atoms: _162  and  _163
REMARK   72  A    between atoms: _162  and  _165
REMARK   73  A    between atoms: _165  and  _166
REMARK   74  A    between atoms: _172  and  _174
REMARK   75  A    between atoms: _174  and  _175
REMARK   76  A    between atoms: _174  and  _177
REMARK   77  A    between atoms: _180  and  _182
REMARK   78  A    between atoms: _182  and  _183
REMARK   79  A    between atoms: _182  and  _185
REMARK   80  A    between atoms: _188  and  _190
REMARK   81  A    between atoms: _190  and  _191
REMARK   82  A    between atoms: _190  and  _193
REMARK   83  A    between atoms: _193  and  _194
REMARK   84  A    between atoms: _198  and  _199
REMARK   85  A    between atoms: _204  and  _206
REMARK   86  A    between atoms: _206  and  _207
REMARK   87  A    between atoms: _206  and  _209
REMARK   88  A    between atoms: _209  and  _210
REMARK   89  A    between atoms: _214  and  _215
REMARK   90  A    between atoms: _220  and  _222
REMARK   91  A    between atoms: _222  and  _223
REMARK   92  A    between atoms: _222  and  _225
REMARK   93  A    between atoms: _228  and  _230
REMARK   94  A    between atoms: _230  and  _231
REMARK   95  A    between atoms: _230  and  _233
REMARK   96  A    between atoms: _233  and  _234
REMARK   97  A    between atoms: _239  and  _241
REMARK   98  A    between atoms: _241  and  _242
REMARK   99  A    between atoms: _241  and  _244
REMARK  100  A    between atoms: _244  and  _245
REMARK  101  A    between atoms: _248  and  _250
REMARK  102  A    between atoms: _250  and  _251
REMARK  103  A    between atoms: _250  and  _253
REMARK  104  A    between atoms: _253  and  _254
REMARK  105  A    between atoms: _257  and  _259
REMARK  106  A    between atoms: _259  and  _260
REMARK  107  A    between atoms: _262  and  _264
REMARK  108  A    between atoms: _264  and  _265
REMARK  109  A    between atoms: _264  and  _267
REMARK  110  A    between atoms: _267  and  _268
REMARK  111  A    between atoms: _268  and  _269
REMARK  112  A    between atoms: _269  and  _270
REMARK  113  A    between atoms: _279  and  _281
REMARK  114  A    between atoms: _281  and  _282
REMARK  115  A    between atoms: _281  and  _284
REMARK  116  A    between atoms: _284  and  _285
REMARK  117  A    between atoms: _290  and  _292
REMARK  118  A    between atoms: _292  and  _293
REMARK  119  A    between atoms: _292  and  _295
REMARK  120  A    between atoms: _295  and  _296
REMARK  121  A    between atoms: _296  and  _297
REMARK  122  A    between atoms: _297  and  _298
REMARK  123  A    between atoms: _307  and  _309
REMARK  124  A    between atoms: _309  and  _310
REMARK  125  A    between atoms: _309  and  _312
REMARK  126  A    between atoms: _312  and  _313
REMARK  127  A    between atoms: _316  and  _318
REMARK  128  A    between atoms: _318  and  _319
REMARK  129  A    between atoms: _318  and  _321
REMARK  130  A    between atoms: _321  and  _322
REMARK  131  A    between atoms: _325  and  _327
REMARK  132  A    between atoms: _327  and  _328
REMARK  133  A    between atoms: _327  and  _330
REMARK  134  A    between atoms: _330  and  _331
REMARK  135  A    between atoms: _334  and  _336
REMARK  136  A    between atoms: _336  and  _337
REMARK  137  A    between atoms: _336  and  _339
REMARK  138  A    between atoms: _339  and  _340
REMARK  139  A    between atoms: _343  and  _345
REMARK  140  A    between atoms: _345  and  _346
REMARK  141  A    between atoms: _348  and  _350
REMARK  142  A    between atoms: _350  and  _351
REMARK  143  A    between atoms: _354  and  _356
REMARK  144  A    between atoms: _356  and  _357
REMARK  145  A    between atoms: _356  and  _359
REMARK  146  A    between atoms: _359  and  _360
REMARK  147  A    between atoms: _363  and  _365
REMARK  148  A    between atoms: _365  and  _366
REMARK  149  A    between atoms: _365  and  _368
REMARK  150  A    between atoms: _368  and  _369
REMARK  151  A    between atoms: _372  and  _374
REMARK  152  A    between atoms: _374  and  _375
REMARK  153  A    between atoms: _374  and  _377
REMARK  154  A    between atoms: _377  and  _378
REMARK  155  A    between atoms: _381  and  _383
REMARK  156  A    between atoms: _383  and  _384
REMARK  157  A    between atoms: _383  and  _386
REMARK  158  A    between atoms: _389  and  _391
REMARK  159  A    between atoms: _391  and  _392
REMARK  160  A    between atoms: _391  and  _394
REMARK  161  A    between atoms: _394  and  _395
REMARK  162  A    between atoms: _395  and  _396
REMARK  163  A    between atoms: _396  and  _397
REMARK  164  A    between atoms: _397  and  _398
REMARK  165  A    between atoms: _402  and  _404
REMARK  166  A    between atoms: _404  and  _405
REMARK  167  A    between atoms: _404  and  _407
REMARK  168  A    between atoms: _407  and  _408
REMARK  169  A    between atoms: _408  and  _409
REMARK  170  A    between atoms: _411  and  _413
REMARK  171  A    between atoms: _413  and  _414
REMARK  172  A    between atoms: _413  and  _416
REMARK  173  A    between atoms: _416  and  _417
REMARK  174  A    between atoms: _420  and  _422
REMARK  175  A    between atoms: _422  and  _423
REMARK  176  A    between atoms: _425  and  _427
REMARK  177  A    between atoms: _427  and  _428
REMARK  178  A    between atoms: _430  and  _432
REMARK  179  A    between atoms: _432  and  _433
REMARK  180  A    between atoms: _432  and  _435
REMARK  181  A    between atoms: _435  and  _436
REMARK  182  A    between atoms: _439  and  _441
REMARK  183  A    between atoms: _441  and  _442
REMARK  184  A    between atoms: _444  and  _446
REMARK  185  A    between atoms: _446  and  _447
REMARK  186  A    between atoms: _449  and  _451
REMARK  187  A    between atoms: _451  and  _452
REMARK  188  A    between atoms: _451  and  _454
REMARK  189  A    between atoms: _454  and  _455
REMARK  190  A    between atoms: _461  and  _463
REMARK  191  A    between atoms: _463  and  _464
REMARK  192  A    between atoms: _463  and  _466
REMARK  193  A    between atoms: _469  and  _471
REMARK  194  A    between atoms: _471  and  _472
REMARK  195  A    between atoms: _471  and  _474
REMARK  196  A    between atoms: _477  and  _479
REMARK  197  A    between atoms: _479  and  _480
REMARK  198  A    between atoms: _479  and  _482
REMARK  199  A    between atoms: _482  and  _483
REMARK  200  A    between atoms: _487  and  _488
REMARK  201  A    between atoms: _493  and  _495
REMARK  202  A    between atoms: _495  and  _496
REMARK  203  A    between atoms: _495  and  _498
REMARK  204  A    between atoms: _498  and  _499
REMARK  205  A    between atoms: _503  and  _504
REMARK  206  A    between atoms: _509  and  _511
REMARK  207  A    between atoms: _511  and  _512
REMARK  208  A    between atoms: _511  and  _514
REMARK  209  A    between atoms: _517  and  _519
REMARK  210  A    between atoms: _519  and  _520
REMARK  211  A    between atoms: _519  and  _522
REMARK  212  A    between atoms: _522  and  _523
REMARK  213  A    between atoms: _528  and  _530
REMARK  214  A    between atoms: _530  and  _531
REMARK  215  A    between atoms: _530  and  _533
REMARK  216  A    between atoms: _533  and  _534
REMARK  217  A    between atoms: _537  and  _539
REMARK  218  A    between atoms: _539  and  _540
REMARK  219  A    between atoms: _539  and  _542
REMARK  220  A    between atoms: _542  and  _543
REMARK  221  A    between atoms: _546  and  _548
REMARK  222  A    between atoms: _548  and  _549
REMARK  223  A    between atoms: _551  and  _553
REMARK  224  A    between atoms: _553  and  _554
REMARK  225  A    between atoms: _553  and  _556
REMARK  226  A    between atoms: _556  and  _557
REMARK  227  A    between atoms: _557  and  _558
REMARK  228  A    between atoms: _558  and  _559
REMARK                            x       y       z     vdW  Elec       q    Type
REMARK                         _______ _______ _______ _____ _____    ______ ____
ROOT
ATOM      1  O   HOH     1       9.229  16.208  26.816  0.00  0.00    +0.000 OA
ENDROOT
TORSDOF 0
REMARK  Name = ../refined-set-2016/3d1y/3d1y_pocket.pdb
REMARK  228 active torsions:
REMARK  status: ('A' for Active; 'I' for Inactive)
REMARK    1  A    between atoms: _1  and  _3
REMARK    2  A    between atoms: _3  and  _4
REMARK    3  A    between atoms: _3  and  _6
REMARK    4  A    between atoms: _6  and  _7
REMARK    5  A    between atoms: _7  and  _8
REMARK    6  A    between atoms: _8  and  _9
REMARK    7  A    between atoms: _18  and  _20
REMARK    8  A    between atoms: _20  and  _21
REMARK    9  A    between atoms: _20  and  _23
REMARK   10  A    between atoms: _23  and  _24
REMARK   11  A    between atoms: _27  and  _29
REMARK   12  A    between atoms: _29  and  _30
REMARK   13  A    between atoms: _29  and  _32
REMARK   14  A    between atoms: _32  and  _33
REMARK   15  A    between atoms: _36  and  _38
REMARK   16  A    between atoms: _38  and  _39
REMARK   17  A    between atoms: _38  and  _41
REMARK   18  A    between atoms: _41  and  _42
REMARK   19  A    between atoms: _45  and  _47
REMARK   20  A    between atoms: _47  and  _48
REMARK   21  A    between atoms: _47  and  _50
REMARK   22  A    between atoms: _50  and  _51
REMARK   23  A    between atoms: _54  and  _56
REMARK   24  A    between atoms: _56  and  _57
REMARK   25  A    between atoms: _59  and  _61
REMARK   26  A    between atoms: _61  and  _62
REMARK   27  A    between atoms: _65  and  _67
REMARK   28  A    between atoms: _67  and  _68
REMARK   29  A    between atoms: _67  and  _70
REMARK   30  A    between atoms: _70  and  _71
REMARK   31  A    between atoms: _74  and  _76
REMARK   32  A    between atoms: _76  and  _77
REMARK   33  A    between atoms: _76  and  _79
REMARK   34  A    between atoms: _79  and  _80
REMARK   35  A    between atoms: _83  and  _85
REMARK   36  A    between atoms: _85  and  _86
REMARK   37  A    between atoms: _85  and  _88
REMARK   38  A    between atoms: _88  and  _89
REMARK   39  A    between atoms: _92  and  _94
REMARK   40  A    between atoms: _94  and  _95
REMARK   41  A    between atoms: _94  and  _97
REMARK   42  A    between atoms: _100  and  _102
REMARK   43  A    between atoms: _102  and  _103
REMARK   44  A    between atoms: _102  and  _105
REMARK   45  A    between atoms: _105  and  _106
REMARK   46  A    between atoms: _106  and  _107
REMARK   47  A    between atoms: _107  and  _108
REMARK   48  A    between atoms: _108  and  _109
REMARK   49  A    between atoms: _113  and  _115
REMARK   50  A    between atoms: _115  and  _116
REMARK   51  A    between atoms: _115  and  _118
REMARK   52  A    between atoms: _118  and  _119
REMARK   53  A    between atoms: _119  and  _120
REMARK   54  A    between atoms: _122  and  _124
REMARK   55  A    between atoms: _124  and  _125
REMARK   56  A    between atoms: _124  and  _127
REMARK   57  A    between atoms: _127  and  _128
REMARK   58  A    between atoms: _131  and  _133
REMARK   59  A    between atoms: _133  and  _134
REMARK   60  A    between atoms: _136  and  _138
REMARK   61  A    between atoms: _138  and  _139
REMARK   62  A    between atoms: _141  and  _143
REMARK   63  A    between atoms: _143  and  _144
REMARK   64  A    between atoms: _143  and  _146
REMARK   65  A    between atoms: _146  and  _147
REMARK   66  A    between atoms: _150  and  _152
REMARK   67  A    between atoms: _152  and  _153
REMARK   68  A    between atoms: _155  and  _157
REMARK   69  A    between atoms: _157  and  _158
REMARK   70  A    between atoms: _160  and  _162
REMARK   71  A    between atoms: _162  and  _163
REMARK   72  A    between atoms: _162  and  _165
REMARK   73  A    between atoms: _165  and  _166
REMARK   74  A    between atoms: _172  and  _174
REMARK   75  A    between atoms: _174  and  _175
REMARK   76  A    between atoms: _174  and  _177
REMARK   77  A    between atoms: _180  and  _182
REMARK   78  A    between atoms: _182  and  _183
REMARK   79  A    between atoms: _182  and  _185
REMARK   80  A    between atoms: _188  and  _190
REMARK   81  A    between atoms: _190  and  _191
REMARK   82  A    between atoms: _190  and  _193
REMARK   83  A    between atoms: _193  and  _194
REMARK   84  A    between atoms: _198  and  _199
REMARK   85  A    between atoms: _204  and  _206
REMARK   86  A    between atoms: _206  and  _207
REMARK   87  A    between atoms: _206  and  _209
REMARK   88  A    between atoms: _209  and  _210
REMARK   89  A    between atoms: _214  and  _215
REMARK   90  A    between atoms: _220  and  _222
REMARK   91  A    between atoms: _222  and  _223
REMARK   92  A    between atoms: _222  and  _225
REMARK   93  A    between atoms: _228  and  _230
REMARK   94  A    between atoms: _230  and  _231
REMARK   95  A    between atoms: _230  and  _233
REMARK   96  A    between atoms: _233  and  _234
REMARK   97  A    between atoms: _239  and  _241
REMARK   98  A    between atoms: _241  and  _242
REMARK   99  A    between atoms: _241  and  _244
REMARK  100  A    between atoms: _244  and  _245
REMARK  101  A    between atoms: _248  and  _250
REMARK  102  A    between atoms: _250  and  _251
REMARK  103  A    between atoms: _250  and  _253
REMARK  104  A    between atoms: _253  and  _254
REMARK  105  A    between atoms: _257  and  _259
REMARK  106  A    between atoms: _259  and  _260
REMARK  107  A    between atoms: _262  and  _264
REMARK  108  A    between atoms: _264  and  _265
REMARK  109  A    between atoms: _264  and  _267
REMARK  110  A    between atoms: _267  and  _268
REMARK  111  A    between atoms: _268  and  _269
REMARK  112  A    between atoms: _269  and  _270
REMARK  113  A    between atoms: _279  and  _281
REMARK  114  A    between atoms: _281  and  _282
REMARK  115  A    between atoms: _281  and  _284
REMARK  116  A    between atoms: _284  and  _285
REMARK  117  A    between atoms: _290  and  _292
REMARK  118  A    between atoms: _292  and  _293
REMARK  119  A    between atoms: _292  and  _295
REMARK  120  A    between atoms: _295  and  _296
REMARK  121  A    between atoms: _296  and  _297
REMARK  122  A    between atoms: _297  and  _298
REMARK  123  A    between atoms: _307  and  _309
REMARK  124  A    between atoms: _309  and  _310
REMARK  125  A    between atoms: _309  and  _312
REMARK  126  A    between atoms: _312  and  _313
REMARK  127  A    between atoms: _316  and  _318
REMARK  128  A    between atoms: _318  and  _319
REMARK  129  A    between atoms: _318  and  _321
REMARK  130  A    between atoms: _321  and  _322
REMARK  131  A    between atoms: _325  and  _327
REMARK  132  A    between atoms: _327  and  _328
REMARK  133  A    between atoms: _327  and  _330
REMARK  134  A    between atoms: _330  and  _331
REMARK  135  A    between atoms: _334  and  _336
REMARK  136  A    between atoms: _336  and  _337
REMARK  137  A    between atoms: _336  and  _339
REMARK  138  A    between atoms: _339  and  _340
REMARK  139  A    between atoms: _343  and  _345
REMARK  140  A    between atoms: _345  and  _346
REMARK  141  A    between atoms: _348  and  _350
REMARK  142  A    between atoms: _350  and  _351
REMARK  143  A    between atoms: _354  and  _356
REMARK  144  A    between atoms: _356  and  _357
REMARK  145  A    between atoms: _356  and  _359
REMARK  146  A    between atoms: _359  and  _360
REMARK  147  A    between atoms: _363  and  _365
REMARK  148  A    between atoms: _365  and  _366
REMARK  149  A    between atoms: _365  and  _368
REMARK  150  A    between atoms: _368  and  _369
REMARK  151  A    between atoms: _372  and  _374
REMARK  152  A    between atoms: _374  and  _375
REMARK  153  A    between atoms: _374  and  _377
REMARK  154  A    between atoms: _377  and  _378
REMARK  155  A    between atoms: _381  and  _383
REMARK  156  A    between atoms: _383  and  _384
REMARK  157  A    between atoms: _383  and  _386
REMARK  158  A    between atoms: _389  and  _391
REMARK  159  A    between atoms: _391  and  _392
REMARK  160  A    between atoms: _391  and  _394
REMARK  161  A    between atoms: _394  and  _395
REMARK  162  A    between atoms: _395  and  _396
REMARK  163  A    between atoms: _396  and  _397
REMARK  164  A    between atoms: _397  and  _398
REMARK  165  A    between atoms: _402  and  _404
REMARK  166  A    between atoms: _404  and  _405
REMARK  167  A    between atoms: _404  and  _407
REMARK  168  A    between atoms: _407  and  _408
REMARK  169  A    between atoms: _408  and  _409
REMARK  170  A    between atoms: _411  and  _413
REMARK  171  A    between atoms: _413  and  _414
REMARK  172  A    between atoms: _413  and  _416
REMARK  173  A    between atoms: _416  and  _417
REMARK  174  A    between atoms: _420  and  _422
REMARK  175  A    between atoms: _422  and  _423
REMARK  176  A    between atoms: _425  and  _427
REMARK  177  A    between atoms: _427  and  _428
REMARK  178  A    between atoms: _430  and  _432
REMARK  179  A    between atoms: _432  and  _433
REMARK  180  A    between atoms: _432  and  _435
REMARK  181  A    between atoms: _435  and  _436
REMARK  182  A    between atoms: _439  and  _441
REMARK  183  A    between atoms: _441  and  _442
REMARK  184  A    between atoms: _444  and  _446
REMARK  185  A    between atoms: _446  and  _447
REMARK  186  A    between atoms: _449  and  _451
REMARK  187  A    between atoms: _451  and  _452
REMARK  188  A    between atoms: _451  and  _454
REMARK  189  A    between atoms: _454  and  _455
REMARK  190  A    between atoms: _461  and  _463
REMARK  191  A    between atoms: _463  and  _464
REMARK  192  A    between atoms: _463  and  _466
REMARK  193  A    between atoms: _469  and  _471
REMARK  194  A    between atoms: _471  and  _472
REMARK  195  A    between atoms: _471  and  _474
REMARK  196  A    between atoms: _477  and  _479
REMARK  197  A    between atoms: _479  and  _480
REMARK  198  A    between atoms: _479  and  _482
REMARK  199  A    between atoms: _482  and  _483
REMARK  200  A    between atoms: _487  and  _488
REMARK  201  A    between atoms: _493  and  _495
REMARK  202  A    between atoms: _495  and  _496
REMARK  203  A    between atoms: _495  and  _498
REMARK  204  A    between atoms: _498  and  _499
REMARK  205  A    between atoms: _503  and  _504
REMARK  206  A    between atoms: _509  and  _511
REMARK  207  A    between atoms: _511  and  _512
REMARK  208  A    between atoms: _511  and  _514
REMARK  209  A    between atoms: _517  and  _519
REMARK  210  A    between atoms: _519  and  _520
REMARK  211  A    between atoms: _519  and  _522
REMARK  212  A    between atoms: _522  and  _523
REMARK  213  A    between atoms: _528  and  _530
REMARK  214  A    between atoms: _530  and  _531
REMARK  215  A    between atoms: _530  and  _533
REMARK  216  A    between atoms: _533  and  _534
REMARK  217  A    between atoms: _537  and  _539
REMARK  218  A    between atoms: _539  and  _540
REMARK  219  A    between atoms: _539  and  _542
REMARK  220  A    between atoms: _542  and  _543
REMARK  221  A    between atoms: _546  and  _548
REMARK  222  A    between atoms: _548  and  _549
REMARK  223  A    between atoms: _551  and  _553
REMARK  224  A    between atoms: _553  and  _554
REMARK  225  A    between atoms: _553  and  _556
REMARK  226  A    between atoms: _556  and  _557
REMARK  227  A    between atoms: _557  and  _558
REMARK  228  A    between atoms: _558  and  _559
REMARK                            x       y       z     vdW  Elec       q    Type
REMARK                         _______ _______ _______ _____ _____    ______ ____
ROOT
ATOM      1  O   HOH     1      10.634  19.645  18.206  0.00  0.00    +0.000 OA
ENDROOT
TORSDOF 0
REMARK  Name = ../refined-set-2016/3d1y/3d1y_pocket.pdb
REMARK  228 active torsions:
REMARK  status: ('A' for Active; 'I' for Inactive)
REMARK    1  A    between atoms: _1  and  _3
REMARK    2  A    between atoms: _3  and  _4
REMARK    3  A    between atoms: _3  and  _6
REMARK    4  A    between atoms: _6  and  _7
REMARK    5  A    between atoms: _7  and  _8
REMARK    6  A    between atoms: _8  and  _9
REMARK    7  A    between atoms: _18  and  _20
REMARK    8  A    between atoms: _20  and  _21
REMARK    9  A    between atoms: _20  and  _23
REMARK   10  A    between atoms: _23  and  _24
REMARK   11  A    between atoms: _27  and  _29
REMARK   12  A    between atoms: _29  and  _30
REMARK   13  A    between atoms: _29  and  _32
REMARK   14  A    between atoms: _32  and  _33
REMARK   15  A    between atoms: _36  and  _38
REMARK   16  A    between atoms: _38  and  _39
REMARK   17  A    between atoms: _38  and  _41
REMARK   18  A    between atoms: _41  and  _42
REMARK   19  A    between atoms: _45  and  _47
REMARK   20  A    between atoms: _47  and  _48
REMARK   21  A    between atoms: _47  and  _50
REMARK   22  A    between atoms: _50  and  _51
REMARK   23  A    between atoms: _54  and  _56
REMARK   24  A    between atoms: _56  and  _57
REMARK   25  A    between atoms: _59  and  _61
REMARK   26  A    between atoms: _61  and  _62
REMARK   27  A    between atoms: _65  and  _67
REMARK   28  A    between atoms: _67  and  _68
REMARK   29  A    between atoms: _67  and  _70
REMARK   30  A    between atoms: _70  and  _71
REMARK   31  A    between atoms: _74  and  _76
REMARK   32  A    between atoms: _76  and  _77
REMARK   33  A    between atoms: _76  and  _79
REMARK   34  A    between atoms: _79  and  _80
REMARK   35  A    between atoms: _83  and  _85
REMARK   36  A    between atoms: _85  and  _86
REMARK   37  A    between atoms: _85  and  _88
REMARK   38  A    between atoms: _88  and  _89
REMARK   39  A    between atoms: _92  and  _94
REMARK   40  A    between atoms: _94  and  _95
REMARK   41  A    between atoms: _94  and  _97
REMARK   42  A    between atoms: _100  and  _102
REMARK   43  A    between atoms: _102  and  _103
REMARK   44  A    between atoms: _102  and  _105
REMARK   45  A    between atoms: _105  and  _106
REMARK   46  A    between atoms: _106  and  _107
REMARK   47  A    between atoms: _107  and  _108
REMARK   48  A    between atoms: _108  and  _109
REMARK   49  A    between atoms: _113  and  _115
REMARK   50  A    between atoms: _115  and  _116
REMARK   51  A    between atoms: _115  and  _118
REMARK   52  A    between atoms: _118  and  _119
REMARK   53  A    between atoms: _119  and  _120
REMARK   54  A    between atoms: _122  and  _124
REMARK   55  A    between atoms: _124  and  _125
REMARK   56  A    between atoms: _124  and  _127
REMARK   57  A    between atoms: _127  and  _128
REMARK   58  A    between atoms: _131  and  _133
REMARK   59  A    between atoms: _133  and  _134
REMARK   60  A    between atoms: _136  and  _138
REMARK   61  A    between atoms: _138  and  _139
REMARK   62  A    between atoms: _141  and  _143
REMARK   63  A    between atoms: _143  and  _144
REMARK   64  A    between atoms: _143  and  _146
REMARK   65  A    between atoms: _146  and  _147
REMARK   66  A    between atoms: _150  and  _152
REMARK   67  A    between atoms: _152  and  _153
REMARK   68  A    between atoms: _155  and  _157
REMARK   69  A    between atoms: _157  and  _158
REMARK   70  A    between atoms: _160  and  _162
REMARK   71  A    between atoms: _162  and  _163
REMARK   72  A    between atoms: _162  and  _165
REMARK   73  A    between atoms: _165  and  _166
REMARK   74  A    between atoms: _172  and  _174
REMARK   75  A    between atoms: _174  and  _175
REMARK   76  A    between atoms: _174  and  _177
REMARK   77  A    between atoms: _180  and  _182
REMARK   78  A    between atoms: _182  and  _183
REMARK   79  A    between atoms: _182  and  _185
REMARK   80  A    between atoms: _188  and  _190
REMARK   81  A    between atoms: _190  and  _191
REMARK   82  A    between atoms: _190  and  _193
REMARK   83  A    between atoms: _193  and  _194
REMARK   84  A    between atoms: _198  and  _199
REMARK   85  A    between atoms: _204  and  _206
REMARK   86  A    between atoms: _206  and  _207
REMARK   87  A    between atoms: _206  and  _209
REMARK   88  A    between atoms: _209  and  _210
REMARK   89  A    between atoms: _214  and  _215
REMARK   90  A    between atoms: _220  and  _222
REMARK   91  A    between atoms: _222  and  _223
REMARK   92  A    between atoms: _222  and  _225
REMARK   93  A    between atoms: _228  and  _230
REMARK   94  A    between atoms: _230  and  _231
REMARK   95  A    between atoms: _230  and  _233
REMARK   96  A    between atoms: _233  and  _234
REMARK   97  A    between atoms: _239  and  _241
REMARK   98  A    between atoms: _241  and  _242
REMARK   99  A    between atoms: _241  and  _244
REMARK  100  A    between atoms: _244  and  _245
REMARK  101  A    between atoms: _248  and  _250
REMARK  102  A    between atoms: _250  and  _251
REMARK  103  A    between atoms: _250  and  _253
REMARK  104  A    between atoms: _253  and  _254
REMARK  105  A    between atoms: _257  and  _259
REMARK  106  A    between atoms: _259  and  _260
REMARK  107  A    between atoms: _262  and  _264
REMARK  108  A    between atoms: _264  and  _265
REMARK  109  A    between atoms: _264  and  _267
REMARK  110  A    between atoms: _267  and  _268
REMARK  111  A    between atoms: _268  and  _269
REMARK  112  A    between atoms: _269  and  _270
REMARK  113  A    between atoms: _279  and  _281
REMARK  114  A    between atoms: _281  and  _282
REMARK  115  A    between atoms: _281  and  _284
REMARK  116  A    between atoms: _284  and  _285
REMARK  117  A    between atoms: _290  and  _292
REMARK  118  A    between atoms: _292  and  _293
REMARK  119  A    between atoms: _292  and  _295
REMARK  120  A    between atoms: _295  and  _296
REMARK  121  A    between atoms: _296  and  _297
REMARK  122  A    between atoms: _297  and  _298
REMARK  123  A    between atoms: _307  and  _309
REMARK  124  A    between atoms: _309  and  _310
REMARK  125  A    between atoms: _309  and  _312
REMARK  126  A    between atoms: _312  and  _313
REMARK  127  A    between atoms: _316  and  _318
REMARK  128  A    between atoms: _318  and  _319
REMARK  129  A    between atoms: _318  and  _321
REMARK  130  A    between atoms: _321  and  _322
REMARK  131  A    between atoms: _325  and  _327
REMARK  132  A    between atoms: _327  and  _328
REMARK  133  A    between atoms: _327  and  _330
REMARK  134  A    between atoms: _330  and  _331
REMARK  135  A    between atoms: _334  and  _336
REMARK  136  A    between atoms: _336  and  _337
REMARK  137  A    between atoms: _336  and  _339
REMARK  138  A    between atoms: _339  and  _340
REMARK  139  A    between atoms: _343  and  _345
REMARK  140  A    between atoms: _345  and  _346
REMARK  141  A    between atoms: _348  and  _350
REMARK  142  A    between atoms: _350  and  _351
REMARK  143  A    between atoms: _354  and  _356
REMARK  144  A    between atoms: _356  and  _357
REMARK  145  A    between atoms: _356  and  _359
REMARK  146  A    between atoms: _359  and  _360
REMARK  147  A    between atoms: _363  and  _365
REMARK  148  A    between atoms: _365  and  _366
REMARK  149  A    between atoms: _365  and  _368
REMARK  150  A    between atoms: _368  and  _369
REMARK  151  A    between atoms: _372  and  _374
REMARK  152  A    between atoms: _374  and  _375
REMARK  153  A    between atoms: _374  and  _377
REMARK  154  A    between atoms: _377  and  _378
REMARK  155  A    between atoms: _381  and  _383
REMARK  156  A    between atoms: _383  and  _384
REMARK  157  A    between atoms: _383  and  _386
REMARK  158  A    between atoms: _389  and  _391
REMARK  159  A    between atoms: _391  and  _392
REMARK  160  A    between atoms: _391  and  _394
REMARK  161  A    between atoms: _394  and  _395
REMARK  162  A    between atoms: _395  and  _396
REMARK  163  A    between atoms: _396  and  _397
REMARK  164  A    between atoms: _397  and  _398
REMARK  165  A    between atoms: _402  and  _404
REMARK  166  A    between atoms: _404  and  _405
REMARK  167  A    between atoms: _404  and  _407
REMARK  168  A    between atoms: _407  and  _408
REMARK  169  A    between atoms: _408  and  _409
REMARK  170  A    between atoms: _411  and  _413
REMARK  171  A    between atoms: _413  and  _414
REMARK  172  A    between atoms: _413  and  _416
REMARK  173  A    between atoms: _416  and  _417
REMARK  174  A    between atoms: _420  and  _422
REMARK  175  A    between atoms: _422  and  _423
REMARK  176  A    between atoms: _425  and  _427
REMARK  177  A    between atoms: _427  and  _428
REMARK  178  A    between atoms: _430  and  _432
REMARK  179  A    between atoms: _432  and  _433
REMARK  180  A    between atoms: _432  and  _435
REMARK  181  A    between atoms: _435  and  _436
REMARK  182  A    between atoms: _439  and  _441
REMARK  183  A    between atoms: _441  and  _442
REMARK  184  A    between atoms: _444  and  _446
REMARK  185  A    between atoms: _446  and  _447
REMARK  186  A    between atoms: _449  and  _451
REMARK  187  A    between atoms: _451  and  _452
REMARK  188  A    between atoms: _451  and  _454
REMARK  189  A    between atoms: _454  and  _455
REMARK  190  A    between atoms: _461  and  _463
REMARK  191  A    between atoms: _463  and  _464
REMARK  192  A    between atoms: _463  and  _466
REMARK  193  A    between atoms: _469  and  _471
REMARK  194  A    between atoms: _471  and  _472
REMARK  195  A    between atoms: _471  and  _474
REMARK  196  A    between atoms: _477  and  _479
REMARK  197  A    between atoms: _479  and  _480
REMARK  198  A    between atoms: _479  and  _482
REMARK  199  A    between atoms: _482  and  _483
REMARK  200  A    between atoms: _487  and  _488
REMARK  201  A    between atoms: _493  and  _495
REMARK  202  A    between atoms: _495  and  _496
REMARK  203  A    between atoms: _495  and  _498
REMARK  204  A    between atoms: _498  and  _499
REMARK  205  A    between atoms: _503  and  _504
REMARK  206  A    between atoms: _509  and  _511
REMARK  207  A    between atoms: _511  and  _512
REMARK  208  A    between atoms: _511  and  _514
REMARK  209  A    between atoms: _517  and  _519
REMARK  210  A    between atoms: _519  and  _520
REMARK  211  A    between atoms: _519  and  _522
REMARK  212  A    between atoms: _522  and  _523
REMARK  213  A    between atoms: _528  and  _530
REMARK  214  A    between atoms: _530  and  _531
REMARK  215  A    between atoms: _530  and  _533
REMARK  216  A    between atoms: _533  and  _534
REMARK  217  A    between atoms: _537  and  _539
REMARK  218  A    between atoms: _539  and  _540
REMARK  219  A    between atoms: _539  and  _542
REMARK  220  A    between atoms: _542  and  _543
REMARK  221  A    between atoms: _546  and  _548
REMARK  222  A    between atoms: _548  and  _549
REMARK  223  A    between atoms: _551  and  _553
REMARK  224  A    between atoms: _553  and  _554
REMARK  225  A    between atoms: _553  and  _556
REMARK  226  A    between atoms: _556  and  _557
REMARK  227  A    between atoms: _557  and  _558
REMARK  228  A    between atoms: _558  and  _559
REMARK                            x       y       z     vdW  Elec       q    Type
REMARK                         _______ _______ _______ _____ _____    ______ ____
ROOT
ATOM      1  O   HOH     1       7.363  24.158  18.325  0.00  0.00    +0.000 OA
ENDROOT
TORSDOF 0
REMARK  Name = ../refined-set-2016/3d1y/3d1y_pocket.pdb
REMARK  228 active torsions:
REMARK  status: ('A' for Active; 'I' for Inactive)
REMARK    1  A    between atoms: _1  and  _3
REMARK    2  A    between atoms: _3  and  _4
REMARK    3  A    between atoms: _3  and  _6
REMARK    4  A    between atoms: _6  and  _7
REMARK    5  A    between atoms: _7  and  _8
REMARK    6  A    between atoms: _8  and  _9
REMARK    7  A    between atoms: _18  and  _20
REMARK    8  A    between atoms: _20  and  _21
REMARK    9  A    between atoms: _20  and  _23
REMARK   10  A    between atoms: _23  and  _24
REMARK   11  A    between atoms: _27  and  _29
REMARK   12  A    between atoms: _29  and  _30
REMARK   13  A    between atoms: _29  and  _32
REMARK   14  A    between atoms: _32  and  _33
REMARK   15  A    between atoms: _36  and  _38
REMARK   16  A    between atoms: _38  and  _39
REMARK   17  A    between atoms: _38  and  _41
REMARK   18  A    between atoms: _41  and  _42
REMARK   19  A    between atoms: _45  and  _47
REMARK   20  A    between atoms: _47  and  _48
REMARK   21  A    between atoms: _47  and  _50
REMARK   22  A    between atoms: _50  and  _51
REMARK   23  A    between atoms: _54  and  _56
REMARK   24  A    between atoms: _56  and  _57
REMARK   25  A    between atoms: _59  and  _61
REMARK   26  A    between atoms: _61  and  _62
REMARK   27  A    between atoms: _65  and  _67
REMARK   28  A    between atoms: _67  and  _68
REMARK   29  A    between atoms: _67  and  _70
REMARK   30  A    between atoms: _70  and  _71
REMARK   31  A    between atoms: _74  and  _76
REMARK   32  A    between atoms: _76  and  _77
REMARK   33  A    between atoms: _76  and  _79
REMARK   34  A    between atoms: _79  and  _80
REMARK   35  A    between atoms: _83  and  _85
REMARK   36  A    between atoms: _85  and  _86
REMARK   37  A    between atoms: _85  and  _88
REMARK   38  A    between atoms: _88  and  _89
REMARK   39  A    between atoms: _92  and  _94
REMARK   40  A    between atoms: _94  and  _95
REMARK   41  A    between atoms: _94  and  _97
REMARK   42  A    between atoms: _100  and  _102
REMARK   43  A    between atoms: _102  and  _103
REMARK   44  A    between atoms: _102  and  _105
REMARK   45  A    between atoms: _105  and  _106
REMARK   46  A    between atoms: _106  and  _107
REMARK   47  A    between atoms: _107  and  _108
REMARK   48  A    between atoms: _108  and  _109
REMARK   49  A    between atoms: _113  and  _115
REMARK   50  A    between atoms: _115  and  _116
REMARK   51  A    between atoms: _115  and  _118
REMARK   52  A    between atoms: _118  and  _119
REMARK   53  A    between atoms: _119  and  _120
REMARK   54  A    between atoms: _122  and  _124
REMARK   55  A    between atoms: _124  and  _125
REMARK   56  A    between atoms: _124  and  _127
REMARK   57  A    between atoms: _127  and  _128
REMARK   58  A    between atoms: _131  and  _133
REMARK   59  A    between atoms: _133  and  _134
REMARK   60  A    between atoms: _136  and  _138
REMARK   61  A    between atoms: _138  and  _139
REMARK   62  A    between atoms: _141  and  _143
REMARK   63  A    between atoms: _143  and  _144
REMARK   64  A    between atoms: _143  and  _146
REMARK   65  A    between atoms: _146  and  _147
REMARK   66  A    between atoms: _150  and  _152
REMARK   67  A    between atoms: _152  and  _153
REMARK   68  A    between atoms: _155  and  _157
REMARK   69  A    between atoms: _157  and  _158
REMARK   70  A    between atoms: _160  and  _162
REMARK   71  A    between atoms: _162  and  _163
REMARK   72  A    between atoms: _162  and  _165
REMARK   73  A    between atoms: _165  and  _166
REMARK   74  A    between atoms: _172  and  _174
REMARK   75  A    between atoms: _174  and  _175
REMARK   76  A    between atoms: _174  and  _177
REMARK   77  A    between atoms: _180  and  _182
REMARK   78  A    between atoms: _182  and  _183
REMARK   79  A    between atoms: _182  and  _185
REMARK   80  A    between atoms: _188  and  _190
REMARK   81  A    between atoms: _190  and  _191
REMARK   82  A    between atoms: _190  and  _193
REMARK   83  A    between atoms: _193  and  _194
REMARK   84  A    between atoms: _198  and  _199
REMARK   85  A    between atoms: _204  and  _206
REMARK   86  A    between atoms: _206  and  _207
REMARK   87  A    between atoms: _206  and  _209
REMARK   88  A    between atoms: _209  and  _210
REMARK   89  A    between atoms: _214  and  _215
REMARK   90  A    between atoms: _220  and  _222
REMARK   91  A    between atoms: _222  and  _223
REMARK   92  A    between atoms: _222  and  _225
REMARK   93  A    between atoms: _228  and  _230
REMARK   94  A    between atoms: _230  and  _231
REMARK   95  A    between atoms: _230  and  _233
REMARK   96  A    between atoms: _233  and  _234
REMARK   97  A    between atoms: _239  and  _241
REMARK   98  A    between atoms: _241  and  _242
REMARK   99  A    between atoms: _241  and  _244
REMARK  100  A    between atoms: _244  and  _245
REMARK  101  A    between atoms: _248  and  _250
REMARK  102  A    between atoms: _250  and  _251
REMARK  103  A    between atoms: _250  and  _253
REMARK  104  A    between atoms: _253  and  _254
REMARK  105  A    between atoms: _257  and  _259
REMARK  106  A    between atoms: _259  and  _260
REMARK  107  A    between atoms: _262  and  _264
REMARK  108  A    between atoms: _264  and  _265
REMARK  109  A    between atoms: _264  and  _267
REMARK  110  A    between atoms: _267  and  _268
REMARK  111  A    between atoms: _268  and  _269
REMARK  112  A    between atoms: _269  and  _270
REMARK  113  A    between atoms: _279  and  _281
REMARK  114  A    between atoms: _281  and  _282
REMARK  115  A    between atoms: _281  and  _284
REMARK  116  A    between atoms: _284  and  _285
REMARK  117  A    between atoms: _290  and  _292
REMARK  118  A    between atoms: _292  and  _293
REMARK  119  A    between atoms: _292  and  _295
REMARK  120  A    between atoms: _295  and  _296
REMARK  121  A    between atoms: _296  and  _297
REMARK  122  A    between atoms: _297  and  _298
REMARK  123  A    between atoms: _307  and  _309
REMARK  124  A    between atoms: _309  and  _310
REMARK  125  A    between atoms: _309  and  _312
REMARK  126  A    between atoms: _312  and  _313
REMARK  127  A    between atoms: _316  and  _318
REMARK  128  A    between atoms: _318  and  _319
REMARK  129  A    between atoms: _318  and  _321
REMARK  130  A    between atoms: _321  and  _322
REMARK  131  A    between atoms: _325  and  _327
REMARK  132  A    between atoms: _327  and  _328
REMARK  133  A    between atoms: _327  and  _330
REMARK  134  A    between atoms: _330  and  _331
REMARK  135  A    between atoms: _334  and  _336
REMARK  136  A    between atoms: _336  and  _337
REMARK  137  A    between atoms: _336  and  _339
REMARK  138  A    between atoms: _339  and  _340
REMARK  139  A    between atoms: _343  and  _345
REMARK  140  A    between atoms: _345  and  _346
REMARK  141  A    between atoms: _348  and  _350
REMARK  142  A    between atoms: _350  and  _351
REMARK  143  A    between atoms: _354  and  _356
REMARK  144  A    between atoms: _356  and  _357
REMARK  145  A    between atoms: _356  and  _359
REMARK  146  A    between atoms: _359  and  _360
REMARK  147  A    between atoms: _363  and  _365
REMARK  148  A    between atoms: _365  and  _366
REMARK  149  A    between atoms: _365  and  _368
REMARK  150  A    between atoms: _368  and  _369
REMARK  151  A    between atoms: _372  and  _374
REMARK  152  A    between atoms: _374  and  _375
REMARK  153  A    between atoms: _374  and  _377
REMARK  154  A    between atoms: _377  and  _378
REMARK  155  A    between atoms: _381  and  _383
REMARK  156  A    between atoms: _383  and  _384
REMARK  157  A    between atoms: _383  and  _386
REMARK  158  A    between atoms: _389  and  _391
REMARK  159  A    between atoms: _391  and  _392
REMARK  160  A    between atoms: _391  and  _394
REMARK  161  A    between atoms: _394  and  _395
REMARK  162  A    between atoms: _395  and  _396
REMARK  163  A    between atoms: _396  and  _397
REMARK  164  A    between atoms: _397  and  _398
REMARK  165  A    between atoms: _402  and  _404
REMARK  166  A    between atoms: _404  and  _405
REMARK  167  A    between atoms: _404  and  _407
REMARK  168  A    between atoms: _407  and  _408
REMARK  169  A    between atoms: _408  and  _409
REMARK  170  A    between atoms: _411  and  _413
REMARK  171  A    between atoms: _413  and  _414
REMARK  172  A    between atoms: _413  and  _416
REMARK  173  A    between atoms: _416  and  _417
REMARK  174  A    between atoms: _420  and  _422
REMARK  175  A    between atoms: _422  and  _423
REMARK  176  A    between atoms: _425  and  _427
REMARK  177  A    between atoms: _427  and  _428
REMARK  178  A    between atoms: _430  and  _432
REMARK  179  A    between atoms: _432  and  _433
REMARK  180  A    between atoms: _432  and  _435
REMARK  181  A    between atoms: _435  and  _436
REMARK  182  A    between atoms: _439  and  _441
REMARK  183  A    between atoms: _441  and  _442
REMARK  184  A    between atoms: _444  and  _446
REMARK  185  A    between atoms: _446  and  _447
REMARK  186  A    between atoms: _449  and  _451
REMARK  187  A    between atoms: _451  and  _452
REMARK  188  A    between atoms: _451  and  _454
REMARK  189  A    between atoms: _454  and  _455
REMARK  190  A    between atoms: _461  and  _463
REMARK  191  A    between atoms: _463  and  _464
REMARK  192  A    between atoms: _463  and  _466
REMARK  193  A    between atoms: _469  and  _471
REMARK  194  A    between atoms: _471  and  _472
REMARK  195  A    between atoms: _471  and  _474
REMARK  196  A    between atoms: _477  and  _479
REMARK  197  A    between atoms: _479  and  _480
REMARK  198  A    between atoms: _479  and  _482
REMARK  199  A    between atoms: _482  and  _483
REMARK  200  A    between atoms: _487  and  _488
REMARK  201  A    between atoms: _493  and  _495
REMARK  202  A    between atoms: _495  and  _496
REMARK  203  A    between atoms: _495  and  _498
REMARK  204  A    between atoms: _498  and  _499
REMARK  205  A    between atoms: _503  and  _504
REMARK  206  A    between atoms: _509  and  _511
REMARK  207  A    between atoms: _511  and  _512
REMARK  208  A    between atoms: _511  and  _514
REMARK  209  A    between atoms: _517  and  _519
REMARK  210  A    between atoms: _519  and  _520
REMARK  211  A    between atoms: _519  and  _522
REMARK  212  A    between atoms: _522  and  _523
REMARK  213  A    between atoms: _528  and  _530
REMARK  214  A    between atoms: _530  and  _531
REMARK  215  A    between atoms: _530  and  _533
REMARK  216  A    between atoms: _533  and  _534
REMARK  217  A    between atoms: _537  and  _539
REMARK  218  A    between atoms: _539  and  _540
REMARK  219  A    between atoms: _539  and  _542
REMARK  220  A    between atoms: _542  and  _543
REMARK  221  A    between atoms: _546  and  _548
REMARK  222  A    between atoms: _548  and  _549
REMARK  223  A    between atoms: _551  and  _553
REMARK  224  A    between atoms: _553  and  _554
REMARK  225  A    between atoms: _553  and  _556
REMARK  226  A    between atoms: _556  and  _557
REMARK  227  A    between atoms: _557  and  _558
REMARK  228  A    between atoms: _558  and  _559
REMARK                            x       y       z     vdW  Elec       q    Type
REMARK                         _______ _______ _______ _____ _____    ______ ____
ROOT
ATOM      1  O   HOH     1       8.767  22.148  16.771  0.00  0.00    +0.000 OA
ENDROOT
TORSDOF 0
REMARK  Name = ../refined-set-2016/3d1y/3d1y_pocket.pdb
REMARK  228 active torsions:
REMARK  status: ('A' for Active; 'I' for Inactive)
REMARK    1  A    between atoms: _1  and  _3
REMARK    2  A    between atoms: _3  and  _4
REMARK    3  A    between atoms: _3  and  _6
REMARK    4  A    between atoms: _6  and  _7
REMARK    5  A    between atoms: _7  and  _8
REMARK    6  A    between atoms: _8  and  _9
REMARK    7  A    between atoms: _18  and  _20
REMARK    8  A    between atoms: _20  and  _21
REMARK    9  A    between atoms: _20  and  _23
REMARK   10  A    between atoms: _23  and  _24
REMARK   11  A    between atoms: _27  and  _29
REMARK   12  A    between atoms: _29  and  _30
REMARK   13  A    between atoms: _29  and  _32
REMARK   14  A    between atoms: _32  and  _33
REMARK   15  A    between atoms: _36  and  _38
REMARK   16  A    between atoms: _38  and  _39
REMARK   17  A    between atoms: _38  and  _41
REMARK   18  A    between atoms: _41  and  _42
REMARK   19  A    between atoms: _45  and  _47
REMARK   20  A    between atoms: _47  and  _48
REMARK   21  A    between atoms: _47  and  _50
REMARK   22  A    between atoms: _50  and  _51
REMARK   23  A    between atoms: _54  and  _56
REMARK   24  A    between atoms: _56  and  _57
REMARK   25  A    between atoms: _59  and  _61
REMARK   26  A    between atoms: _61  and  _62
REMARK   27  A    between atoms: _65  and  _67
REMARK   28  A    between atoms: _67  and  _68
REMARK   29  A    between atoms: _67  and  _70
REMARK   30  A    between atoms: _70  and  _71
REMARK   31  A    between atoms: _74  and  _76
REMARK   32  A    between atoms: _76  and  _77
REMARK   33  A    between atoms: _76  and  _79
REMARK   34  A    between atoms: _79  and  _80
REMARK   35  A    between atoms: _83  and  _85
REMARK   36  A    between atoms: _85  and  _86
REMARK   37  A    between atoms: _85  and  _88
REMARK   38  A    between atoms: _88  and  _89
REMARK   39  A    between atoms: _92  and  _94
REMARK   40  A    between atoms: _94  and  _95
REMARK   41  A    between atoms: _94  and  _97
REMARK   42  A    between atoms: _100  and  _102
REMARK   43  A    between atoms: _102  and  _103
REMARK   44  A    between atoms: _102  and  _105
REMARK   45  A    between atoms: _105  and  _106
REMARK   46  A    between atoms: _106  and  _107
REMARK   47  A    between atoms: _107  and  _108
REMARK   48  A    between atoms: _108  and  _109
REMARK   49  A    between atoms: _113  and  _115
REMARK   50  A    between atoms: _115  and  _116
REMARK   51  A    between atoms: _115  and  _118
REMARK   52  A    between atoms: _118  and  _119
REMARK   53  A    between atoms: _119  and  _120
REMARK   54  A    between atoms: _122  and  _124
REMARK   55  A    between atoms: _124  and  _125
REMARK   56  A    between atoms: _124  and  _127
REMARK   57  A    between atoms: _127  and  _128
REMARK   58  A    between atoms: _131  and  _133
REMARK   59  A    between atoms: _133  and  _134
REMARK   60  A    between atoms: _136  and  _138
REMARK   61  A    between atoms: _138  and  _139
REMARK   62  A    between atoms: _141  and  _143
REMARK   63  A    between atoms: _143  and  _144
REMARK   64  A    between atoms: _143  and  _146
REMARK   65  A    between atoms: _146  and  _147
REMARK   66  A    between atoms: _150  and  _152
REMARK   67  A    between atoms: _152  and  _153
REMARK   68  A    between atoms: _155  and  _157
REMARK   69  A    between atoms: _157  and  _158
REMARK   70  A    between atoms: _160  and  _162
REMARK   71  A    between atoms: _162  and  _163
REMARK   72  A    between atoms: _162  and  _165
REMARK   73  A    between atoms: _165  and  _166
REMARK   74  A    between atoms: _172  and  _174
REMARK   75  A    between atoms: _174  and  _175
REMARK   76  A    between atoms: _174  and  _177
REMARK   77  A    between atoms: _180  and  _182
REMARK   78  A    between atoms: _182  and  _183
REMARK   79  A    between atoms: _182  and  _185
REMARK   80  A    between atoms: _188  and  _190
REMARK   81  A    between atoms: _190  and  _191
REMARK   82  A    between atoms: _190  and  _193
REMARK   83  A    between atoms: _193  and  _194
REMARK   84  A    between atoms: _198  and  _199
REMARK   85  A    between atoms: _204  and  _206
REMARK   86  A    between atoms: _206  and  _207
REMARK   87  A    between atoms: _206  and  _209
REMARK   88  A    between atoms: _209  and  _210
REMARK   89  A    between atoms: _214  and  _215
REMARK   90  A    between atoms: _220  and  _222
REMARK   91  A    between atoms: _222  and  _223
REMARK   92  A    between atoms: _222  and  _225
REMARK   93  A    between atoms: _228  and  _230
REMARK   94  A    between atoms: _230  and  _231
REMARK   95  A    between atoms: _230  and  _233
REMARK   96  A    between atoms: _233  and  _234
REMARK   97  A    between atoms: _239  and  _241
REMARK   98  A    between atoms: _241  and  _242
REMARK   99  A    between atoms: _241  and  _244
REMARK  100  A    between atoms: _244  and  _245
REMARK  101  A    between atoms: _248  and  _250
REMARK  102  A    between atoms: _250  and  _251
REMARK  103  A    between atoms: _250  and  _253
REMARK  104  A    between atoms: _253  and  _254
REMARK  105  A    between atoms: _257  and  _259
REMARK  106  A    between atoms: _259  and  _260
REMARK  107  A    between atoms: _262  and  _264
REMARK  108  A    between atoms: _264  and  _265
REMARK  109  A    between atoms: _264  and  _267
REMARK  110  A    between atoms: _267  and  _268
REMARK  111  A    between atoms: _268  and  _269
REMARK  112  A    between atoms: _269  and  _270
REMARK  113  A    between atoms: _279  and  _281
REMARK  114  A    between atoms: _281  and  _282
REMARK  115  A    between atoms: _281  and  _284
REMARK  116  A    between atoms: _284  and  _285
REMARK  117  A    between atoms: _290  and  _292
REMARK  118  A    between atoms: _292  and  _293
REMARK  119  A    between atoms: _292  and  _295
REMARK  120  A    between atoms: _295  and  _296
REMARK  121  A    between atoms: _296  and  _297
REMARK  122  A    between atoms: _297  and  _298
REMARK  123  A    between atoms: _307  and  _309
REMARK  124  A    between atoms: _309  and  _310
REMARK  125  A    between atoms: _309  and  _312
REMARK  126  A    between atoms: _312  and  _313
REMARK  127  A    between atoms: _316  and  _318
REMARK  128  A    between atoms: _318  and  _319
REMARK  129  A    between atoms: _318  and  _321
REMARK  130  A    between atoms: _321  and  _322
REMARK  131  A    between atoms: _325  and  _327
REMARK  132  A    between atoms: _327  and  _328
REMARK  133  A    between atoms: _327  and  _330
REMARK  134  A    between atoms: _330  and  _331
REMARK  135  A    between atoms: _334  and  _336
REMARK  136  A    between atoms: _336  and  _337
REMARK  137  A    between atoms: _336  and  _339
REMARK  138  A    between atoms: _339  and  _340
REMARK  139  A    between atoms: _343  and  _345
REMARK  140  A    between atoms: _345  and  _346
REMARK  141  A    between atoms: _348  and  _350
REMARK  142  A    between atoms: _350  and  _351
REMARK  143  A    between atoms: _354  and  _356
REMARK  144  A    between atoms: _356  and  _357
REMARK  145  A    between atoms: _356  and  _359
REMARK  146  A    between atoms: _359  and  _360
REMARK  147  A    between atoms: _363  and  _365
REMARK  148  A    between atoms: _365  and  _366
REMARK  149  A    between atoms: _365  and  _368
REMARK  150  A    between atoms: _368  and  _369
REMARK  151  A    between atoms: _372  and  _374
REMARK  152  A    between atoms: _374  and  _375
REMARK  153  A    between atoms: _374  and  _377
REMARK  154  A    between atoms: _377  and  _378
REMARK  155  A    between atoms: _381  and  _383
REMARK  156  A    between atoms: _383  and  _384
REMARK  157  A    between atoms: _383  and  _386
REMARK  158  A    between atoms: _389  and  _391
REMARK  159  A    between atoms: _391  and  _392
REMARK  160  A    between atoms: _391  and  _394
REMARK  161  A    between atoms: _394  and  _395
REMARK  162  A    between atoms: _395  and  _396
REMARK  163  A    between atoms: _396  and  _397
REMARK  164  A    between atoms: _397  and  _398
REMARK  165  A    between atoms: _402  and  _404
REMARK  166  A    between atoms: _404  and  _405
REMARK  167  A    between atoms: _404  and  _407
REMARK  168  A    between atoms: _407  and  _408
REMARK  169  A    between atoms: _408  and  _409
REMARK  170  A    between atoms: _411  and  _413
REMARK  171  A    between atoms: _413  and  _414
REMARK  172  A    between atoms: _413  and  _416
REMARK  173  A    between atoms: _416  and  _417
REMARK  174  A    between atoms: _420  and  _422
REMARK  175  A    between atoms: _422  and  _423
REMARK  176  A    between atoms: _425  and  _427
REMARK  177  A    between atoms: _427  and  _428
REMARK  178  A    between atoms: _430  and  _432
REMARK  179  A    between atoms: _432  and  _433
REMARK  180  A    between atoms: _432  and  _435
REMARK  181  A    between atoms: _435  and  _436
REMARK  182  A    between atoms: _439  and  _441
REMARK  183  A    between atoms: _441  and  _442
REMARK  184  A    between atoms: _444  and  _446
REMARK  185  A    between atoms: _446  and  _447
REMARK  186  A    between atoms: _449  and  _451
REMARK  187  A    between atoms: _451  and  _452
REMARK  188  A    between atoms: _451  and  _454
REMARK  189  A    between atoms: _454  and  _455
REMARK  190  A    between atoms: _461  and  _463
REMARK  191  A    between atoms: _463  and  _464
REMARK  192  A    between atoms: _463  and  _466
REMARK  193  A    between atoms: _469  and  _471
REMARK  194  A    between atoms: _471  and  _472
REMARK  195  A    between atoms: _471  and  _474
REMARK  196  A    between atoms: _477  and  _479
REMARK  197  A    between atoms: _479  and  _480
REMARK  198  A    between atoms: _479  and  _482
REMARK  199  A    between atoms: _482  and  _483
REMARK  200  A    between atoms: _487  and  _488
REMARK  201  A    between atoms: _493  and  _495
REMARK  202  A    between atoms: _495  and  _496
REMARK  203  A    between atoms: _495  and  _498
REMARK  204  A    between atoms: _498  and  _499
REMARK  205  A    between atoms: _503  and  _504
REMARK  206  A    between atoms: _509  and  _511
REMARK  207  A    between atoms: _511  and  _512
REMARK  208  A    between atoms: _511  and  _514
REMARK  209  A    between atoms: _517  and  _519
REMARK  210  A    between atoms: _519  and  _520
REMARK  211  A    between atoms: _519  and  _522
REMARK  212  A    between atoms: _522  and  _523
REMARK  213  A    between atoms: _528  and  _530
REMARK  214  A    between atoms: _530  and  _531
REMARK  215  A    between atoms: _530  and  _533
REMARK  216  A    between atoms: _533  and  _534
REMARK  217  A    between atoms: _537  and  _539
REMARK  218  A    between atoms: _539  and  _540
REMARK  219  A    between atoms: _539  and  _542
REMARK  220  A    between atoms: _542  and  _543
REMARK  221  A    between atoms: _546  and  _548
REMARK  222  A    between atoms: _548  and  _549
REMARK  223  A    between atoms: _551  and  _553
REMARK  224  A    between atoms: _553  and  _554
REMARK  225  A    between atoms: _553  and  _556
REMARK  226  A    between atoms: _556  and  _557
REMARK  227  A    between atoms: _557  and  _558
REMARK  228  A    between atoms: _558  and  _559
REMARK                            x       y       z     vdW  Elec       q    Type
REMARK                         _______ _______ _______ _____ _____    ______ ____
ROOT
ATOM      1  O   HOH     1      11.116  14.952  16.899  0.00  0.00    +0.000 OA
ENDROOT
TORSDOF 0
REMARK  Name = ../refined-set-2016/3d1y/3d1y_pocket.pdb
REMARK  228 active torsions:
REMARK  status: ('A' for Active; 'I' for Inactive)
REMARK    1  A    between atoms: _1  and  _3
REMARK    2  A    between atoms: _3  and  _4
REMARK    3  A    between atoms: _3  and  _6
REMARK    4  A    between atoms: _6  and  _7
REMARK    5  A    between atoms: _7  and  _8
REMARK    6  A    between atoms: _8  and  _9
REMARK    7  A    between atoms: _18  and  _20
REMARK    8  A    between atoms: _20  and  _21
REMARK    9  A    between atoms: _20  and  _23
REMARK   10  A    between atoms: _23  and  _24
REMARK   11  A    between atoms: _27  and  _29
REMARK   12  A    between atoms: _29  and  _30
REMARK   13  A    between atoms: _29  and  _32
REMARK   14  A    between atoms: _32  and  _33
REMARK   15  A    between atoms: _36  and  _38
REMARK   16  A    between atoms: _38  and  _39
REMARK   17  A    between atoms: _38  and  _41
REMARK   18  A    between atoms: _41  and  _42
REMARK   19  A    between atoms: _45  and  _47
REMARK   20  A    between atoms: _47  and  _48
REMARK   21  A    between atoms: _47  and  _50
REMARK   22  A    between atoms: _50  and  _51
REMARK   23  A    between atoms: _54  and  _56
REMARK   24  A    between atoms: _56  and  _57
REMARK   25  A    between atoms: _59  and  _61
REMARK   26  A    between atoms: _61  and  _62
REMARK   27  A    between atoms: _65  and  _67
REMARK   28  A    between atoms: _67  and  _68
REMARK   29  A    between atoms: _67  and  _70
REMARK   30  A    between atoms: _70  and  _71
REMARK   31  A    between atoms: _74  and  _76
REMARK   32  A    between atoms: _76  and  _77
REMARK   33  A    between atoms: _76  and  _79
REMARK   34  A    between atoms: _79  and  _80
REMARK   35  A    between atoms: _83  and  _85
REMARK   36  A    between atoms: _85  and  _86
REMARK   37  A    between atoms: _85  and  _88
REMARK   38  A    between atoms: _88  and  _89
REMARK   39  A    between atoms: _92  and  _94
REMARK   40  A    between atoms: _94  and  _95
REMARK   41  A    between atoms: _94  and  _97
REMARK   42  A    between atoms: _100  and  _102
REMARK   43  A    between atoms: _102  and  _103
REMARK   44  A    between atoms: _102  and  _105
REMARK   45  A    between atoms: _105  and  _106
REMARK   46  A    between atoms: _106  and  _107
REMARK   47  A    between atoms: _107  and  _108
REMARK   48  A    between atoms: _108  and  _109
REMARK   49  A    between atoms: _113  and  _115
REMARK   50  A    between atoms: _115  and  _116
REMARK   51  A    between atoms: _115  and  _118
REMARK   52  A    between atoms: _118  and  _119
REMARK   53  A    between atoms: _119  and  _120
REMARK   54  A    between atoms: _122  and  _124
REMARK   55  A    between atoms: _124  and  _125
REMARK   56  A    between atoms: _124  and  _127
REMARK   57  A    between atoms: _127  and  _128
REMARK   58  A    between atoms: _131  and  _133
REMARK   59  A    between atoms: _133  and  _134
REMARK   60  A    between atoms: _136  and  _138
REMARK   61  A    between atoms: _138  and  _139
REMARK   62  A    between atoms: _141  and  _143
REMARK   63  A    between atoms: _143  and  _144
REMARK   64  A    between atoms: _143  and  _146
REMARK   65  A    between atoms: _146  and  _147
REMARK   66  A    between atoms: _150  and  _152
REMARK   67  A    between atoms: _152  and  _153
REMARK   68  A    between atoms: _155  and  _157
REMARK   69  A    between atoms: _157  and  _158
REMARK   70  A    between atoms: _160  and  _162
REMARK   71  A    between atoms: _162  and  _163
REMARK   72  A    between atoms: _162  and  _165
REMARK   73  A    between atoms: _165  and  _166
REMARK   74  A    between atoms: _172  and  _174
REMARK   75  A    between atoms: _174  and  _175
REMARK   76  A    between atoms: _174  and  _177
REMARK   77  A    between atoms: _180  and  _182
REMARK   78  A    between atoms: _182  and  _183
REMARK   79  A    between atoms: _182  and  _185
REMARK   80  A    between atoms: _188  and  _190
REMARK   81  A    between atoms: _190  and  _191
REMARK   82  A    between atoms: _190  and  _193
REMARK   83  A    between atoms: _193  and  _194
REMARK   84  A    between atoms: _198  and  _199
REMARK   85  A    between atoms: _204  and  _206
REMARK   86  A    between atoms: _206  and  _207
REMARK   87  A    between atoms: _206  and  _209
REMARK   88  A    between atoms: _209  and  _210
REMARK   89  A    between atoms: _214  and  _215
REMARK   90  A    between atoms: _220  and  _222
REMARK   91  A    between atoms: _222  and  _223
REMARK   92  A    between atoms: _222  and  _225
REMARK   93  A    between atoms: _228  and  _230
REMARK   94  A    between atoms: _230  and  _231
REMARK   95  A    between atoms: _230  and  _233
REMARK   96  A    between atoms: _233  and  _234
REMARK   97  A    between atoms: _239  and  _241
REMARK   98  A    between atoms: _241  and  _242
REMARK   99  A    between atoms: _241  and  _244
REMARK  100  A    between atoms: _244  and  _245
REMARK  101  A    between atoms: _248  and  _250
REMARK  102  A    between atoms: _250  and  _251
REMARK  103  A    between atoms: _250  and  _253
REMARK  104  A    between atoms: _253  and  _254
REMARK  105  A    between atoms: _257  and  _259
REMARK  106  A    between atoms: _259  and  _260
REMARK  107  A    between atoms: _262  and  _264
REMARK  108  A    between atoms: _264  and  _265
REMARK  109  A    between atoms: _264  and  _267
REMARK  110  A    between atoms: _267  and  _268
REMARK  111  A    between atoms: _268  and  _269
REMARK  112  A    between atoms: _269  and  _270
REMARK  113  A    between atoms: _279  and  _281
REMARK  114  A    between atoms: _281  and  _282
REMARK  115  A    between atoms: _281  and  _284
REMARK  116  A    between atoms: _284  and  _285
REMARK  117  A    between atoms: _290  and  _292
REMARK  118  A    between atoms: _292  and  _293
REMARK  119  A    between atoms: _292  and  _295
REMARK  120  A    between atoms: _295  and  _296
REMARK  121  A    between atoms: _296  and  _297
REMARK  122  A    between atoms: _297  and  _298
REMARK  123  A    between atoms: _307  and  _309
REMARK  124  A    between atoms: _309  and  _310
REMARK  125  A    between atoms: _309  and  _312
REMARK  126  A    between atoms: _312  and  _313
REMARK  127  A    between atoms: _316  and  _318
REMARK  128  A    between atoms: _318  and  _319
REMARK  129  A    between atoms: _318  and  _321
REMARK  130  A    between atoms: _321  and  _322
REMARK  131  A    between atoms: _325  and  _327
REMARK  132  A    between atoms: _327  and  _328
REMARK  133  A    between atoms: _327  and  _330
REMARK  134  A    between atoms: _330  and  _331
REMARK  135  A    between atoms: _334  and  _336
REMARK  136  A    between atoms: _336  and  _337
REMARK  137  A    between atoms: _336  and  _339
REMARK  138  A    between atoms: _339  and  _340
REMARK  139  A    between atoms: _343  and  _345
REMARK  140  A    between atoms: _345  and  _346
REMARK  141  A    between atoms: _348  and  _350
REMARK  142  A    between atoms: _350  and  _351
REMARK  143  A    between atoms: _354  and  _356
REMARK  144  A    between atoms: _356  and  _357
REMARK  145  A    between atoms: _356  and  _359
REMARK  146  A    between atoms: _359  and  _360
REMARK  147  A    between atoms: _363  and  _365
REMARK  148  A    between atoms: _365  and  _366
REMARK  149  A    between atoms: _365  and  _368
REMARK  150  A    between atoms: _368  and  _369
REMARK  151  A    between atoms: _372  and  _374
REMARK  152  A    between atoms: _374  and  _375
REMARK  153  A    between atoms: _374  and  _377
REMARK  154  A    between atoms: _377  and  _378
REMARK  155  A    between atoms: _381  and  _383
REMARK  156  A    between atoms: _383  and  _384
REMARK  157  A    between atoms: _383  and  _386
REMARK  158  A    between atoms: _389  and  _391
REMARK  159  A    between atoms: _391  and  _392
REMARK  160  A    between atoms: _391  and  _394
REMARK  161  A    between atoms: _394  and  _395
REMARK  162  A    between atoms: _395  and  _396
REMARK  163  A    between atoms: _396  and  _397
REMARK  164  A    between atoms: _397  and  _398
REMARK  165  A    between atoms: _402  and  _404
REMARK  166  A    between atoms: _404  and  _405
REMARK  167  A    between atoms: _404  and  _407
REMARK  168  A    between atoms: _407  and  _408
REMARK  169  A    between atoms: _408  and  _409
REMARK  170  A    between atoms: _411  and  _413
REMARK  171  A    between atoms: _413  and  _414
REMARK  172  A    between atoms: _413  and  _416
REMARK  173  A    between atoms: _416  and  _417
REMARK  174  A    between atoms: _420  and  _422
REMARK  175  A    between atoms: _422  and  _423
REMARK  176  A    between atoms: _425  and  _427
REMARK  177  A    between atoms: _427  and  _428
REMARK  178  A    between atoms: _430  and  _432
REMARK  179  A    between atoms: _432  and  _433
REMARK  180  A    between atoms: _432  and  _435
REMARK  181  A    between atoms: _435  and  _436
REMARK  182  A    between atoms: _439  and  _441
REMARK  183  A    between atoms: _441  and  _442
REMARK  184  A    between atoms: _444  and  _446
REMARK  185  A    between atoms: _446  and  _447
REMARK  186  A    between atoms: _449  and  _451
REMARK  187  A    between atoms: _451  and  _452
REMARK  188  A    between atoms: _451  and  _454
REMARK  189  A    between atoms: _454  and  _455
REMARK  190  A    between atoms: _461  and  _463
REMARK  191  A    between atoms: _463  and  _464
REMARK  192  A    between atoms: _463  and  _466
REMARK  193  A    between atoms: _469  and  _471
REMARK  194  A    between atoms: _471  and  _472
REMARK  195  A    between atoms: _471  and  _474
REMARK  196  A    between atoms: _477  and  _479
REMARK  197  A    between atoms: _479  and  _480
REMARK  198  A    between atoms: _479  and  _482
REMARK  199  A    between atoms: _482  and  _483
REMARK  200  A    between atoms: _487  and  _488
REMARK  201  A    between atoms: _493  and  _495
REMARK  202  A    between atoms: _495  and  _496
REMARK  203  A    between atoms: _495  and  _498
REMARK  204  A    between atoms: _498  and  _499
REMARK  205  A    between atoms: _503  and  _504
REMARK  206  A    between atoms: _509  and  _511
REMARK  207  A    between atoms: _511  and  _512
REMARK  208  A    between atoms: _511  and  _514
REMARK  209  A    between atoms: _517  and  _519
REMARK  210  A    between atoms: _519  and  _520
REMARK  211  A    between atoms: _519  and  _522
REMARK  212  A    between atoms: _522  and  _523
REMARK  213  A    between atoms: _528  and  _530
REMARK  214  A    between atoms: _530  and  _531
REMARK  215  A    between atoms: _530  and  _533
REMARK  216  A    between atoms: _533  and  _534
REMARK  217  A    between atoms: _537  and  _539
REMARK  218  A    between atoms: _539  and  _540
REMARK  219  A    between atoms: _539  and  _542
REMARK  220  A    between atoms: _542  and  _543
REMARK  221  A    between atoms: _546  and  _548
REMARK  222  A    between atoms: _548  and  _549
REMARK  223  A    between atoms: _551  and  _553
REMARK  224  A    between atoms: _553  and  _554
REMARK  225  A    between atoms: _553  and  _556
REMARK  226  A    between atoms: _556  and  _557
REMARK  227  A    between atoms: _557  and  _558
REMARK  228  A    between atoms: _558  and  _559
REMARK                            x       y       z     vdW  Elec       q    Type
REMARK                         _______ _______ _______ _____ _____    ______ ____
ROOT
ATOM      1  O   HOH     1      23.021  26.277  28.584  0.00  0.00    +0.000 OA
ENDROOT
TORSDOF 0
REMARK  Name = ../refined-set-2016/3d1y/3d1y_pocket.pdb
REMARK  228 active torsions:
REMARK  status: ('A' for Active; 'I' for Inactive)
REMARK    1  A    between atoms: _1  and  _3
REMARK    2  A    between atoms: _3  and  _4
REMARK    3  A    between atoms: _3  and  _6
REMARK    4  A    between atoms: _6  and  _7
REMARK    5  A    between atoms: _7  and  _8
REMARK    6  A    between atoms: _8  and  _9
REMARK    7  A    between atoms: _18  and  _20
REMARK    8  A    between atoms: _20  and  _21
REMARK    9  A    between atoms: _20  and  _23
REMARK   10  A    between atoms: _23  and  _24
REMARK   11  A    between atoms: _27  and  _29
REMARK   12  A    between atoms: _29  and  _30
REMARK   13  A    between atoms: _29  and  _32
REMARK   14  A    between atoms: _32  and  _33
REMARK   15  A    between atoms: _36  and  _38
REMARK   16  A    between atoms: _38  and  _39
REMARK   17  A    between atoms: _38  and  _41
REMARK   18  A    between atoms: _41  and  _42
REMARK   19  A    between atoms: _45  and  _47
REMARK   20  A    between atoms: _47  and  _48
REMARK   21  A    between atoms: _47  and  _50
REMARK   22  A    between atoms: _50  and  _51
REMARK   23  A    between atoms: _54  and  _56
REMARK   24  A    between atoms: _56  and  _57
REMARK   25  A    between atoms: _59  and  _61
REMARK   26  A    between atoms: _61  and  _62
REMARK   27  A    between atoms: _65  and  _67
REMARK   28  A    between atoms: _67  and  _68
REMARK   29  A    between atoms: _67  and  _70
REMARK   30  A    between atoms: _70  and  _71
REMARK   31  A    between atoms: _74  and  _76
REMARK   32  A    between atoms: _76  and  _77
REMARK   33  A    between atoms: _76  and  _79
REMARK   34  A    between atoms: _79  and  _80
REMARK   35  A    between atoms: _83  and  _85
REMARK   36  A    between atoms: _85  and  _86
REMARK   37  A    between atoms: _85  and  _88
REMARK   38  A    between atoms: _88  and  _89
REMARK   39  A    between atoms: _92  and  _94
REMARK   40  A    between atoms: _94  and  _95
REMARK   41  A    between atoms: _94  and  _97
REMARK   42  A    between atoms: _100  and  _102
REMARK   43  A    between atoms: _102  and  _103
REMARK   44  A    between atoms: _102  and  _105
REMARK   45  A    between atoms: _105  and  _106
REMARK   46  A    between atoms: _106  and  _107
REMARK   47  A    between atoms: _107  and  _108
REMARK   48  A    between atoms: _108  and  _109
REMARK   49  A    between atoms: _113  and  _115
REMARK   50  A    between atoms: _115  and  _116
REMARK   51  A    between atoms: _115  and  _118
REMARK   52  A    between atoms: _118  and  _119
REMARK   53  A    between atoms: _119  and  _120
REMARK   54  A    between atoms: _122  and  _124
REMARK   55  A    between atoms: _124  and  _125
REMARK   56  A    between atoms: _124  and  _127
REMARK   57  A    between atoms: _127  and  _128
REMARK   58  A    between atoms: _131  and  _133
REMARK   59  A    between atoms: _133  and  _134
REMARK   60  A    between atoms: _136  and  _138
REMARK   61  A    between atoms: _138  and  _139
REMARK   62  A    between atoms: _141  and  _143
REMARK   63  A    between atoms: _143  and  _144
REMARK   64  A    between atoms: _143  and  _146
REMARK   65  A    between atoms: _146  and  _147
REMARK   66  A    between atoms: _150  and  _152
REMARK   67  A    between atoms: _152  and  _153
REMARK   68  A    between atoms: _155  and  _157
REMARK   69  A    between atoms: _157  and  _158
REMARK   70  A    between atoms: _160  and  _162
REMARK   71  A    between atoms: _162  and  _163
REMARK   72  A    between atoms: _162  and  _165
REMARK   73  A    between atoms: _165  and  _166
REMARK   74  A    between atoms: _172  and  _174
REMARK   75  A    between atoms: _174  and  _175
REMARK   76  A    between atoms: _174  and  _177
REMARK   77  A    between atoms: _180  and  _182
REMARK   78  A    between atoms: _182  and  _183
REMARK   79  A    between atoms: _182  and  _185
REMARK   80  A    between atoms: _188  and  _190
REMARK   81  A    between atoms: _190  and  _191
REMARK   82  A    between atoms: _190  and  _193
REMARK   83  A    between atoms: _193  and  _194
REMARK   84  A    between atoms: _198  and  _199
REMARK   85  A    between atoms: _204  and  _206
REMARK   86  A    between atoms: _206  and  _207
REMARK   87  A    between atoms: _206  and  _209
REMARK   88  A    between atoms: _209  and  _210
REMARK   89  A    between atoms: _214  and  _215
REMARK   90  A    between atoms: _220  and  _222
REMARK   91  A    between atoms: _222  and  _223
REMARK   92  A    between atoms: _222  and  _225
REMARK   93  A    between atoms: _228  and  _230
REMARK   94  A    between atoms: _230  and  _231
REMARK   95  A    between atoms: _230  and  _233
REMARK   96  A    between atoms: _233  and  _234
REMARK   97  A    between atoms: _239  and  _241
REMARK   98  A    between atoms: _241  and  _242
REMARK   99  A    between atoms: _241  and  _244
REMARK  100  A    between atoms: _244  and  _245
REMARK  101  A    between atoms: _248  and  _250
REMARK  102  A    between atoms: _250  and  _251
REMARK  103  A    between atoms: _250  and  _253
REMARK  104  A    between atoms: _253  and  _254
REMARK  105  A    between atoms: _257  and  _259
REMARK  106  A    between atoms: _259  and  _260
REMARK  107  A    between atoms: _262  and  _264
REMARK  108  A    between atoms: _264  and  _265
REMARK  109  A    between atoms: _264  and  _267
REMARK  110  A    between atoms: _267  and  _268
REMARK  111  A    between atoms: _268  and  _269
REMARK  112  A    between atoms: _269  and  _270
REMARK  113  A    between atoms: _279  and  _281
REMARK  114  A    between atoms: _281  and  _282
REMARK  115  A    between atoms: _281  and  _284
REMARK  116  A    between atoms: _284  and  _285
REMARK  117  A    between atoms: _290  and  _292
REMARK  118  A    between atoms: _292  and  _293
REMARK  119  A    between atoms: _292  and  _295
REMARK  120  A    between atoms: _295  and  _296
REMARK  121  A    between atoms: _296  and  _297
REMARK  122  A    between atoms: _297  and  _298
REMARK  123  A    between atoms: _307  and  _309
REMARK  124  A    between atoms: _309  and  _310
REMARK  125  A    between atoms: _309  and  _312
REMARK  126  A    between atoms: _312  and  _313
REMARK  127  A    between atoms: _316  and  _318
REMARK  128  A    between atoms: _318  and  _319
REMARK  129  A    between atoms: _318  and  _321
REMARK  130  A    between atoms: _321  and  _322
REMARK  131  A    between atoms: _325  and  _327
REMARK  132  A    between atoms: _327  and  _328
REMARK  133  A    between atoms: _327  and  _330
REMARK  134  A    between atoms: _330  and  _331
REMARK  135  A    between atoms: _334  and  _336
REMARK  136  A    between atoms: _336  and  _337
REMARK  137  A    between atoms: _336  and  _339
REMARK  138  A    between atoms: _339  and  _340
REMARK  139  A    between atoms: _343  and  _345
REMARK  140  A    between atoms: _345  and  _346
REMARK  141  A    between atoms: _348  and  _350
REMARK  142  A    between atoms: _350  and  _351
REMARK  143  A    between atoms: _354  and  _356
REMARK  144  A    between atoms: _356  and  _357
REMARK  145  A    between atoms: _356  and  _359
REMARK  146  A    between atoms: _359  and  _360
REMARK  147  A    between atoms: _363  and  _365
REMARK  148  A    between atoms: _365  and  _366
REMARK  149  A    between atoms: _365  and  _368
REMARK  150  A    between atoms: _368  and  _369
REMARK  151  A    between atoms: _372  and  _374
REMARK  152  A    between atoms: _374  and  _375
REMARK  153  A    between atoms: _374  and  _377
REMARK  154  A    between atoms: _377  and  _378
REMARK  155  A    between atoms: _381  and  _383
REMARK  156  A    between atoms: _383  and  _384
REMARK  157  A    between atoms: _383  and  _386
REMARK  158  A    between atoms: _389  and  _391
REMARK  159  A    between atoms: _391  and  _392
REMARK  160  A    between atoms: _391  and  _394
REMARK  161  A    between atoms: _394  and  _395
REMARK  162  A    between atoms: _395  and  _396
REMARK  163  A    between atoms: _396  and  _397
REMARK  164  A    between atoms: _397  and  _398
REMARK  165  A    between atoms: _402  and  _404
REMARK  166  A    between atoms: _404  and  _405
REMARK  167  A    between atoms: _404  and  _407
REMARK  168  A    between atoms: _407  and  _408
REMARK  169  A    between atoms: _408  and  _409
REMARK  170  A    between atoms: _411  and  _413
REMARK  171  A    between atoms: _413  and  _414
REMARK  172  A    between atoms: _413  and  _416
REMARK  173  A    between atoms: _416  and  _417
REMARK  174  A    between atoms: _420  and  _422
REMARK  175  A    between atoms: _422  and  _423
REMARK  176  A    between atoms: _425  and  _427
REMARK  177  A    between atoms: _427  and  _428
REMARK  178  A    between atoms: _430  and  _432
REMARK  179  A    between atoms: _432  and  _433
REMARK  180  A    between atoms: _432  and  _435
REMARK  181  A    between atoms: _435  and  _436
REMARK  182  A    between atoms: _439  and  _441
REMARK  183  A    between atoms: _441  and  _442
REMARK  184  A    between atoms: _444  and  _446
REMARK  185  A    between atoms: _446  and  _447
REMARK  186  A    between atoms: _449  and  _451
REMARK  187  A    between atoms: _451  and  _452
REMARK  188  A    between atoms: _451  and  _454
REMARK  189  A    between atoms: _454  and  _455
REMARK  190  A    between atoms: _461  and  _463
REMARK  191  A    between atoms: _463  and  _464
REMARK  192  A    between atoms: _463  and  _466
REMARK  193  A    between atoms: _469  and  _471
REMARK  194  A    between atoms: _471  and  _472
REMARK  195  A    between atoms: _471  and  _474
REMARK  196  A    between atoms: _477  and  _479
REMARK  197  A    between atoms: _479  and  _480
REMARK  198  A    between atoms: _479  and  _482
REMARK  199  A    between atoms: _482  and  _483
REMARK  200  A    between atoms: _487  and  _488
REMARK  201  A    between atoms: _493  and  _495
REMARK  202  A    between atoms: _495  and  _496
REMARK  203  A    between atoms: _495  and  _498
REMARK  204  A    between atoms: _498  and  _499
REMARK  205  A    between atoms: _503  and  _504
REMARK  206  A    between atoms: _509  and  _511
REMARK  207  A    between atoms: _511  and  _512
REMARK  208  A    between atoms: _511  and  _514
REMARK  209  A    between atoms: _517  and  _519
REMARK  210  A    between atoms: _519  and  _520
REMARK  211  A    between atoms: _519  and  _522
REMARK  212  A    between atoms: _522  and  _523
REMARK  213  A    between atoms: _528  and  _530
REMARK  214  A    between atoms: _530  and  _531
REMARK  215  A    between atoms: _530  and  _533
REMARK  216  A    between atoms: _533  and  _534
REMARK  217  A    between atoms: _537  and  _539
REMARK  218  A    between atoms: _539  and  _540
REMARK  219  A    between atoms: _539  and  _542
REMARK  220  A    between atoms: _542  and  _543
REMARK  221  A    between atoms: _546  and  _548
REMARK  222  A    between atoms: _548  and  _549
REMARK  223  A    between atoms: _551  and  _553
REMARK  224  A    between atoms: _553  and  _554
REMARK  225  A    between atoms: _553  and  _556
REMARK  226  A    between atoms: _556  and  _557
REMARK  227  A    between atoms: _557  and  _558
REMARK  228  A    between atoms: _558  and  _559
REMARK                            x       y       z     vdW  Elec       q    Type
REMARK                         _______ _______ _______ _____ _____    ______ ____
ROOT
ATOM      1  O   HOH     1      15.443  15.721  12.152  0.00  0.00    +0.000 OA
ENDROOT
TORSDOF 0
REMARK  Name = ../refined-set-2016/3d1y/3d1y_pocket.pdb
REMARK  228 active torsions:
REMARK  status: ('A' for Active; 'I' for Inactive)
REMARK    1  A    between atoms: _1  and  _3
REMARK    2  A    between atoms: _3  and  _4
REMARK    3  A    between atoms: _3  and  _6
REMARK    4  A    between atoms: _6  and  _7
REMARK    5  A    between atoms: _7  and  _8
REMARK    6  A    between atoms: _8  and  _9
REMARK    7  A    between atoms: _18  and  _20
REMARK    8  A    between atoms: _20  and  _21
REMARK    9  A    between atoms: _20  and  _23
REMARK   10  A    between atoms: _23  and  _24
REMARK   11  A    between atoms: _27  and  _29
REMARK   12  A    between atoms: _29  and  _30
REMARK   13  A    between atoms: _29  and  _32
REMARK   14  A    between atoms: _32  and  _33
REMARK   15  A    between atoms: _36  and  _38
REMARK   16  A    between atoms: _38  and  _39
REMARK   17  A    between atoms: _38  and  _41
REMARK   18  A    between atoms: _41  and  _42
REMARK   19  A    between atoms: _45  and  _47
REMARK   20  A    between atoms: _47  and  _48
REMARK   21  A    between atoms: _47  and  _50
REMARK   22  A    between atoms: _50  and  _51
REMARK   23  A    between atoms: _54  and  _56
REMARK   24  A    between atoms: _56  and  _57
REMARK   25  A    between atoms: _59  and  _61
REMARK   26  A    between atoms: _61  and  _62
REMARK   27  A    between atoms: _65  and  _67
REMARK   28  A    between atoms: _67  and  _68
REMARK   29  A    between atoms: _67  and  _70
REMARK   30  A    between atoms: _70  and  _71
REMARK   31  A    between atoms: _74  and  _76
REMARK   32  A    between atoms: _76  and  _77
REMARK   33  A    between atoms: _76  and  _79
REMARK   34  A    between atoms: _79  and  _80
REMARK   35  A    between atoms: _83  and  _85
REMARK   36  A    between atoms: _85  and  _86
REMARK   37  A    between atoms: _85  and  _88
REMARK   38  A    between atoms: _88  and  _89
REMARK   39  A    between atoms: _92  and  _94
REMARK   40  A    between atoms: _94  and  _95
REMARK   41  A    between atoms: _94  and  _97
REMARK   42  A    between atoms: _100  and  _102
REMARK   43  A    between atoms: _102  and  _103
REMARK   44  A    between atoms: _102  and  _105
REMARK   45  A    between atoms: _105  and  _106
REMARK   46  A    between atoms: _106  and  _107
REMARK   47  A    between atoms: _107  and  _108
REMARK   48  A    between atoms: _108  and  _109
REMARK   49  A    between atoms: _113  and  _115
REMARK   50  A    between atoms: _115  and  _116
REMARK   51  A    between atoms: _115  and  _118
REMARK   52  A    between atoms: _118  and  _119
REMARK   53  A    between atoms: _119  and  _120
REMARK   54  A    between atoms: _122  and  _124
REMARK   55  A    between atoms: _124  and  _125
REMARK   56  A    between atoms: _124  and  _127
REMARK   57  A    between atoms: _127  and  _128
REMARK   58  A    between atoms: _131  and  _133
REMARK   59  A    between atoms: _133  and  _134
REMARK   60  A    between atoms: _136  and  _138
REMARK   61  A    between atoms: _138  and  _139
REMARK   62  A    between atoms: _141  and  _143
REMARK   63  A    between atoms: _143  and  _144
REMARK   64  A    between atoms: _143  and  _146
REMARK   65  A    between atoms: _146  and  _147
REMARK   66  A    between atoms: _150  and  _152
REMARK   67  A    between atoms: _152  and  _153
REMARK   68  A    between atoms: _155  and  _157
REMARK   69  A    between atoms: _157  and  _158
REMARK   70  A    between atoms: _160  and  _162
REMARK   71  A    between atoms: _162  and  _163
REMARK   72  A    between atoms: _162  and  _165
REMARK   73  A    between atoms: _165  and  _166
REMARK   74  A    between atoms: _172  and  _174
REMARK   75  A    between atoms: _174  and  _175
REMARK   76  A    between atoms: _174  and  _177
REMARK   77  A    between atoms: _180  and  _182
REMARK   78  A    between atoms: _182  and  _183
REMARK   79  A    between atoms: _182  and  _185
REMARK   80  A    between atoms: _188  and  _190
REMARK   81  A    between atoms: _190  and  _191
REMARK   82  A    between atoms: _190  and  _193
REMARK   83  A    between atoms: _193  and  _194
REMARK   84  A    between atoms: _198  and  _199
REMARK   85  A    between atoms: _204  and  _206
REMARK   86  A    between atoms: _206  and  _207
REMARK   87  A    between atoms: _206  and  _209
REMARK   88  A    between atoms: _209  and  _210
REMARK   89  A    between atoms: _214  and  _215
REMARK   90  A    between atoms: _220  and  _222
REMARK   91  A    between atoms: _222  and  _223
REMARK   92  A    between atoms: _222  and  _225
REMARK   93  A    between atoms: _228  and  _230
REMARK   94  A    between atoms: _230  and  _231
REMARK   95  A    between atoms: _230  and  _233
REMARK   96  A    between atoms: _233  and  _234
REMARK   97  A    between atoms: _239  and  _241
REMARK   98  A    between atoms: _241  and  _242
REMARK   99  A    between atoms: _241  and  _244
REMARK  100  A    between atoms: _244  and  _245
REMARK  101  A    between atoms: _248  and  _250
REMARK  102  A    between atoms: _250  and  _251
REMARK  103  A    between atoms: _250  and  _253
REMARK  104  A    between atoms: _253  and  _254
REMARK  105  A    between atoms: _257  and  _259
REMARK  106  A    between atoms: _259  and  _260
REMARK  107  A    between atoms: _262  and  _264
REMARK  108  A    between atoms: _264  and  _265
REMARK  109  A    between atoms: _264  and  _267
REMARK  110  A    between atoms: _267  and  _268
REMARK  111  A    between atoms: _268  and  _269
REMARK  112  A    between atoms: _269  and  _270
REMARK  113  A    between atoms: _279  and  _281
REMARK  114  A    between atoms: _281  and  _282
REMARK  115  A    between atoms: _281  and  _284
REMARK  116  A    between atoms: _284  and  _285
REMARK  117  A    between atoms: _290  and  _292
REMARK  118  A    between atoms: _292  and  _293
REMARK  119  A    between atoms: _292  and  _295
REMARK  120  A    between atoms: _295  and  _296
REMARK  121  A    between atoms: _296  and  _297
REMARK  122  A    between atoms: _297  and  _298
REMARK  123  A    between atoms: _307  and  _309
REMARK  124  A    between atoms: _309  and  _310
REMARK  125  A    between atoms: _309  and  _312
REMARK  126  A    between atoms: _312  and  _313
REMARK  127  A    between atoms: _316  and  _318
REMARK  128  A    between atoms: _318  and  _319
REMARK  129  A    between atoms: _318  and  _321
REMARK  130  A    between atoms: _321  and  _322
REMARK  131  A    between atoms: _325  and  _327
REMARK  132  A    between atoms: _327  and  _328
REMARK  133  A    between atoms: _327  and  _330
REMARK  134  A    between atoms: _330  and  _331
REMARK  135  A    between atoms: _334  and  _336
REMARK  136  A    between atoms: _336  and  _337
REMARK  137  A    between atoms: _336  and  _339
REMARK  138  A    between atoms: _339  and  _340
REMARK  139  A    between atoms: _343  and  _345
REMARK  140  A    between atoms: _345  and  _346
REMARK  141  A    between atoms: _348  and  _350
REMARK  142  A    between atoms: _350  and  _351
REMARK  143  A    between atoms: _354  and  _356
REMARK  144  A    between atoms: _356  and  _357
REMARK  145  A    between atoms: _356  and  _359
REMARK  146  A    between atoms: _359  and  _360
REMARK  147  A    between atoms: _363  and  _365
REMARK  148  A    between atoms: _365  and  _366
REMARK  149  A    between atoms: _365  and  _368
REMARK  150  A    between atoms: _368  and  _369
REMARK  151  A    between atoms: _372  and  _374
REMARK  152  A    between atoms: _374  and  _375
REMARK  153  A    between atoms: _374  and  _377
REMARK  154  A    between atoms: _377  and  _378
REMARK  155  A    between atoms: _381  and  _383
REMARK  156  A    between atoms: _383  and  _384
REMARK  157  A    between atoms: _383  and  _386
REMARK  158  A    between atoms: _389  and  _391
REMARK  159  A    between atoms: _391  and  _392
REMARK  160  A    between atoms: _391  and  _394
REMARK  161  A    between atoms: _394  and  _395
REMARK  162  A    between atoms: _395  and  _396
REMARK  163  A    between atoms: _396  and  _397
REMARK  164  A    between atoms: _397  and  _398
REMARK  165  A    between atoms: _402  and  _404
REMARK  166  A    between atoms: _404  and  _405
REMARK  167  A    between atoms: _404  and  _407
REMARK  168  A    between atoms: _407  and  _408
REMARK  169  A    between atoms: _408  and  _409
REMARK  170  A    between atoms: _411  and  _413
REMARK  171  A    between atoms: _413  and  _414
REMARK  172  A    between atoms: _413  and  _416
REMARK  173  A    between atoms: _416  and  _417
REMARK  174  A    between atoms: _420  and  _422
REMARK  175  A    between atoms: _422  and  _423
REMARK  176  A    between atoms: _425  and  _427
REMARK  177  A    between atoms: _427  and  _428
REMARK  178  A    between atoms: _430  and  _432
REMARK  179  A    between atoms: _432  and  _433
REMARK  180  A    between atoms: _432  and  _435
REMARK  181  A    between atoms: _435  and  _436
REMARK  182  A    between atoms: _439  and  _441
REMARK  183  A    between atoms: _441  and  _442
REMARK  184  A    between atoms: _444  and  _446
REMARK  185  A    between atoms: _446  and  _447
REMARK  186  A    between atoms: _449  and  _451
REMARK  187  A    between atoms: _451  and  _452
REMARK  188  A    between atoms: _451  and  _454
REMARK  189  A    between atoms: _454  and  _455
REMARK  190  A    between atoms: _461  and  _463
REMARK  191  A    between atoms: _463  and  _464
REMARK  192  A    between atoms: _463  and  _466
REMARK  193  A    between atoms: _469  and  _471
REMARK  194  A    between atoms: _471  and  _472
REMARK  195  A    between atoms: _471  and  _474
REMARK  196  A    between atoms: _477  and  _479
REMARK  197  A    between atoms: _479  and  _480
REMARK  198  A    between atoms: _479  and  _482
REMARK  199  A    between atoms: _482  and  _483
REMARK  200  A    between atoms: _487  and  _488
REMARK  201  A    between atoms: _493  and  _495
REMARK  202  A    between atoms: _495  and  _496
REMARK  203  A    between atoms: _495  and  _498
REMARK  204  A    between atoms: _498  and  _499
REMARK  205  A    between atoms: _503  and  _504
REMARK  206  A    between atoms: _509  and  _511
REMARK  207  A    between atoms: _511  and  _512
REMARK  208  A    between atoms: _511  and  _514
REMARK  209  A    between atoms: _517  and  _519
REMARK  210  A    between atoms: _519  and  _520
REMARK  211  A    between atoms: _519  and  _522
REMARK  212  A    between atoms: _522  and  _523
REMARK  213  A    between atoms: _528  and  _530
REMARK  214  A    between atoms: _530  and  _531
REMARK  215  A    between atoms: _530  and  _533
REMARK  216  A    between atoms: _533  and  _534
REMARK  217  A    between atoms: _537  and  _539
REMARK  218  A    between atoms: _539  and  _540
REMARK  219  A    between atoms: _539  and  _542
REMARK  220  A    between atoms: _542  and  _543
REMARK  221  A    between atoms: _546  and  _548
REMARK  222  A    between atoms: _548  and  _549
REMARK  223  A    between atoms: _551  and  _553
REMARK  224  A    between atoms: _553  and  _554
REMARK  225  A    between atoms: _553  and  _556
REMARK  226  A    between atoms: _556  and  _557
REMARK  227  A    between atoms: _557  and  _558
REMARK  228  A    between atoms: _558  and  _559
REMARK                            x       y       z     vdW  Elec       q    Type
REMARK                         _______ _______ _______ _____ _____    ______ ____
ROOT
ATOM      1  O   HOH     1      23.510  27.877  26.282  0.00  0.00    +0.000 OA
ENDROOT
TORSDOF 0
REMARK  Name = ../refined-set-2016/3d1y/3d1y_pocket.pdb
REMARK  228 active torsions:
REMARK  status: ('A' for Active; 'I' for Inactive)
REMARK    1  A    between atoms: _1  and  _3
REMARK    2  A    between atoms: _3  and  _4
REMARK    3  A    between atoms: _3  and  _6
REMARK    4  A    between atoms: _6  and  _7
REMARK    5  A    between atoms: _7  and  _8
REMARK    6  A    between atoms: _8  and  _9
REMARK    7  A    between atoms: _18  and  _20
REMARK    8  A    between atoms: _20  and  _21
REMARK    9  A    between atoms: _20  and  _23
REMARK   10  A    between atoms: _23  and  _24
REMARK   11  A    between atoms: _27  and  _29
REMARK   12  A    between atoms: _29  and  _30
REMARK   13  A    between atoms: _29  and  _32
REMARK   14  A    between atoms: _32  and  _33
REMARK   15  A    between atoms: _36  and  _38
REMARK   16  A    between atoms: _38  and  _39
REMARK   17  A    between atoms: _38  and  _41
REMARK   18  A    between atoms: _41  and  _42
REMARK   19  A    between atoms: _45  and  _47
REMARK   20  A    between atoms: _47  and  _48
REMARK   21  A    between atoms: _47  and  _50
REMARK   22  A    between atoms: _50  and  _51
REMARK   23  A    between atoms: _54  and  _56
REMARK   24  A    between atoms: _56  and  _57
REMARK   25  A    between atoms: _59  and  _61
REMARK   26  A    between atoms: _61  and  _62
REMARK   27  A    between atoms: _65  and  _67
REMARK   28  A    between atoms: _67  and  _68
REMARK   29  A    between atoms: _67  and  _70
REMARK   30  A    between atoms: _70  and  _71
REMARK   31  A    between atoms: _74  and  _76
REMARK   32  A    between atoms: _76  and  _77
REMARK   33  A    between atoms: _76  and  _79
REMARK   34  A    between atoms: _79  and  _80
REMARK   35  A    between atoms: _83  and  _85
REMARK   36  A    between atoms: _85  and  _86
REMARK   37  A    between atoms: _85  and  _88
REMARK   38  A    between atoms: _88  and  _89
REMARK   39  A    between atoms: _92  and  _94
REMARK   40  A    between atoms: _94  and  _95
REMARK   41  A    between atoms: _94  and  _97
REMARK   42  A    between atoms: _100  and  _102
REMARK   43  A    between atoms: _102  and  _103
REMARK   44  A    between atoms: _102  and  _105
REMARK   45  A    between atoms: _105  and  _106
REMARK   46  A    between atoms: _106  and  _107
REMARK   47  A    between atoms: _107  and  _108
REMARK   48  A    between atoms: _108  and  _109
REMARK   49  A    between atoms: _113  and  _115
REMARK   50  A    between atoms: _115  and  _116
REMARK   51  A    between atoms: _115  and  _118
REMARK   52  A    between atoms: _118  and  _119
REMARK   53  A    between atoms: _119  and  _120
REMARK   54  A    between atoms: _122  and  _124
REMARK   55  A    between atoms: _124  and  _125
REMARK   56  A    between atoms: _124  and  _127
REMARK   57  A    between atoms: _127  and  _128
REMARK   58  A    between atoms: _131  and  _133
REMARK   59  A    between atoms: _133  and  _134
REMARK   60  A    between atoms: _136  and  _138
REMARK   61  A    between atoms: _138  and  _139
REMARK   62  A    between atoms: _141  and  _143
REMARK   63  A    between atoms: _143  and  _144
REMARK   64  A    between atoms: _143  and  _146
REMARK   65  A    between atoms: _146  and  _147
REMARK   66  A    between atoms: _150  and  _152
REMARK   67  A    between atoms: _152  and  _153
REMARK   68  A    between atoms: _155  and  _157
REMARK   69  A    between atoms: _157  and  _158
REMARK   70  A    between atoms: _160  and  _162
REMARK   71  A    between atoms: _162  and  _163
REMARK   72  A    between atoms: _162  and  _165
REMARK   73  A    between atoms: _165  and  _166
REMARK   74  A    between atoms: _172  and  _174
REMARK   75  A    between atoms: _174  and  _175
REMARK   76  A    between atoms: _174  and  _177
REMARK   77  A    between atoms: _180  and  _182
REMARK   78  A    between atoms: _182  and  _183
REMARK   79  A    between atoms: _182  and  _185
REMARK   80  A    between atoms: _188  and  _190
REMARK   81  A    between atoms: _190  and  _191
REMARK   82  A    between atoms: _190  and  _193
REMARK   83  A    between atoms: _193  and  _194
REMARK   84  A    between atoms: _198  and  _199
REMARK   85  A    between atoms: _204  and  _206
REMARK   86  A    between atoms: _206  and  _207
REMARK   87  A    between atoms: _206  and  _209
REMARK   88  A    between atoms: _209  and  _210
REMARK   89  A    between atoms: _214  and  _215
REMARK   90  A    between atoms: _220  and  _222
REMARK   91  A    between atoms: _222  and  _223
REMARK   92  A    between atoms: _222  and  _225
REMARK   93  A    between atoms: _228  and  _230
REMARK   94  A    between atoms: _230  and  _231
REMARK   95  A    between atoms: _230  and  _233
REMARK   96  A    between atoms: _233  and  _234
REMARK   97  A    between atoms: _239  and  _241
REMARK   98  A    between atoms: _241  and  _242
REMARK   99  A    between atoms: _241  and  _244
REMARK  100  A    between atoms: _244  and  _245
REMARK  101  A    between atoms: _248  and  _250
REMARK  102  A    between atoms: _250  and  _251
REMARK  103  A    between atoms: _250  and  _253
REMARK  104  A    between atoms: _253  and  _254
REMARK  105  A    between atoms: _257  and  _259
REMARK  106  A    between atoms: _259  and  _260
REMARK  107  A    between atoms: _262  and  _264
REMARK  108  A    between atoms: _264  and  _265
REMARK  109  A    between atoms: _264  and  _267
REMARK  110  A    between atoms: _267  and  _268
REMARK  111  A    between atoms: _268  and  _269
REMARK  112  A    between atoms: _269  and  _270
REMARK  113  A    between atoms: _279  and  _281
REMARK  114  A    between atoms: _281  and  _282
REMARK  115  A    between atoms: _281  and  _284
REMARK  116  A    between atoms: _284  and  _285
REMARK  117  A    between atoms: _290  and  _292
REMARK  118  A    between atoms: _292  and  _293
REMARK  119  A    between atoms: _292  and  _295
REMARK  120  A    between atoms: _295  and  _296
REMARK  121  A    between atoms: _296  and  _297
REMARK  122  A    between atoms: _297  and  _298
REMARK  123  A    between atoms: _307  and  _309
REMARK  124  A    between atoms: _309  and  _310
REMARK  125  A    between atoms: _309  and  _312
REMARK  126  A    between atoms: _312  and  _313
REMARK  127  A    between atoms: _316  and  _318
REMARK  128  A    between atoms: _318  and  _319
REMARK  129  A    between atoms: _318  and  _321
REMARK  130  A    between atoms: _321  and  _322
REMARK  131  A    between atoms: _325  and  _327
REMARK  132  A    between atoms: _327  and  _328
REMARK  133  A    between atoms: _327  and  _330
REMARK  134  A    between atoms: _330  and  _331
REMARK  135  A    between atoms: _334  and  _336
REMARK  136  A    between atoms: _336  and  _337
REMARK  137  A    between atoms: _336  and  _339
REMARK  138  A    between atoms: _339  and  _340
REMARK  139  A    between atoms: _343  and  _345
REMARK  140  A    between atoms: _345  and  _346
REMARK  141  A    between atoms: _348  and  _350
REMARK  142  A    between atoms: _350  and  _351
REMARK  143  A    between atoms: _354  and  _356
REMARK  144  A    between atoms: _356  and  _357
REMARK  145  A    between atoms: _356  and  _359
REMARK  146  A    between atoms: _359  and  _360
REMARK  147  A    between atoms: _363  and  _365
REMARK  148  A    between atoms: _365  and  _366
REMARK  149  A    between atoms: _365  and  _368
REMARK  150  A    between atoms: _368  and  _369
REMARK  151  A    between atoms: _372  and  _374
REMARK  152  A    between atoms: _374  and  _375
REMARK  153  A    between atoms: _374  and  _377
REMARK  154  A    between atoms: _377  and  _378
REMARK  155  A    between atoms: _381  and  _383
REMARK  156  A    between atoms: _383  and  _384
REMARK  157  A    between atoms: _383  and  _386
REMARK  158  A    between atoms: _389  and  _391
REMARK  159  A    between atoms: _391  and  _392
REMARK  160  A    between atoms: _391  and  _394
REMARK  161  A    between atoms: _394  and  _395
REMARK  162  A    between atoms: _395  and  _396
REMARK  163  A    between atoms: _396  and  _397
REMARK  164  A    between atoms: _397  and  _398
REMARK  165  A    between atoms: _402  and  _404
REMARK  166  A    between atoms: _404  and  _405
REMARK  167  A    between atoms: _404  and  _407
REMARK  168  A    between atoms: _407  and  _408
REMARK  169  A    between atoms: _408  and  _409
REMARK  170  A    between atoms: _411  and  _413
REMARK  171  A    between atoms: _413  and  _414
REMARK  172  A    between atoms: _413  and  _416
REMARK  173  A    between atoms: _416  and  _417
REMARK  174  A    between atoms: _420  and  _422
REMARK  175  A    between atoms: _422  and  _423
REMARK  176  A    between atoms: _425  and  _427
REMARK  177  A    between atoms: _427  and  _428
REMARK  178  A    between atoms: _430  and  _432
REMARK  179  A    between atoms: _432  and  _433
REMARK  180  A    between atoms: _432  and  _435
REMARK  181  A    between atoms: _435  and  _436
REMARK  182  A    between atoms: _439  and  _441
REMARK  183  A    between atoms: _441  and  _442
REMARK  184  A    between atoms: _444  and  _446
REMARK  185  A    between atoms: _446  and  _447
REMARK  186  A    between atoms: _449  and  _451
REMARK  187  A    between atoms: _451  and  _452
REMARK  188  A    between atoms: _451  and  _454
REMARK  189  A    between atoms: _454  and  _455
REMARK  190  A    between atoms: _461  and  _463
REMARK  191  A    between atoms: _463  and  _464
REMARK  192  A    between atoms: _463  and  _466
REMARK  193  A    between atoms: _469  and  _471
REMARK  194  A    between atoms: _471  and  _472
REMARK  195  A    between atoms: _471  and  _474
REMARK  196  A    between atoms: _477  and  _479
REMARK  197  A    between atoms: _479  and  _480
REMARK  198  A    between atoms: _479  and  _482
REMARK  199  A    between atoms: _482  and  _483
REMARK  200  A    between atoms: _487  and  _488
REMARK  201  A    between atoms: _493  and  _495
REMARK  202  A    between atoms: _495  and  _496
REMARK  203  A    between atoms: _495  and  _498
REMARK  204  A    between atoms: _498  and  _499
REMARK  205  A    between atoms: _503  and  _504
REMARK  206  A    between atoms: _509  and  _511
REMARK  207  A    between atoms: _511  and  _512
REMARK  208  A    between atoms: _511  and  _514
REMARK  209  A    between atoms: _517  and  _519
REMARK  210  A    between atoms: _519  and  _520
REMARK  211  A    between atoms: _519  and  _522
REMARK  212  A    between atoms: _522  and  _523
REMARK  213  A    between atoms: _528  and  _530
REMARK  214  A    between atoms: _530  and  _531
REMARK  215  A    between atoms: _530  and  _533
REMARK  216  A    between atoms: _533  and  _534
REMARK  217  A    between atoms: _537  and  _539
REMARK  218  A    between atoms: _539  and  _540
REMARK  219  A    between atoms: _539  and  _542
REMARK  220  A    between atoms: _542  and  _543
REMARK  221  A    between atoms: _546  and  _548
REMARK  222  A    between atoms: _548  and  _549
REMARK  223  A    between atoms: _551  and  _553
REMARK  224  A    between atoms: _553  and  _554
REMARK  225  A    between atoms: _553  and  _556
REMARK  226  A    between atoms: _556  and  _557
REMARK  227  A    between atoms: _557  and  _558
REMARK  228  A    between atoms: _558  and  _559
REMARK                            x       y       z     vdW  Elec       q    Type
REMARK                         _______ _______ _______ _____ _____    ______ ____
ROOT
ATOM      1  O   HOH     1       6.833  15.903  25.245  0.00  0.00    +0.000 OA
ENDROOT
TORSDOF 0
REMARK  Name = ../refined-set-2016/3d1y/3d1y_pocket.pdb
REMARK  228 active torsions:
REMARK  status: ('A' for Active; 'I' for Inactive)
REMARK    1  A    between atoms: _1  and  _3
REMARK    2  A    between atoms: _3  and  _4
REMARK    3  A    between atoms: _3  and  _6
REMARK    4  A    between atoms: _6  and  _7
REMARK    5  A    between atoms: _7  and  _8
REMARK    6  A    between atoms: _8  and  _9
REMARK    7  A    between atoms: _18  and  _20
REMARK    8  A    between atoms: _20  and  _21
REMARK    9  A    between atoms: _20  and  _23
REMARK   10  A    between atoms: _23  and  _24
REMARK   11  A    between atoms: _27  and  _29
REMARK   12  A    between atoms: _29  and  _30
REMARK   13  A    between atoms: _29  and  _32
REMARK   14  A    between atoms: _32  and  _33
REMARK   15  A    between atoms: _36  and  _38
REMARK   16  A    between atoms: _38  and  _39
REMARK   17  A    between atoms: _38  and  _41
REMARK   18  A    between atoms: _41  and  _42
REMARK   19  A    between atoms: _45  and  _47
REMARK   20  A    between atoms: _47  and  _48
REMARK   21  A    between atoms: _47  and  _50
REMARK   22  A    between atoms: _50  and  _51
REMARK   23  A    between atoms: _54  and  _56
REMARK   24  A    between atoms: _56  and  _57
REMARK   25  A    between atoms: _59  and  _61
REMARK   26  A    between atoms: _61  and  _62
REMARK   27  A    between atoms: _65  and  _67
REMARK   28  A    between atoms: _67  and  _68
REMARK   29  A    between atoms: _67  and  _70
REMARK   30  A    between atoms: _70  and  _71
REMARK   31  A    between atoms: _74  and  _76
REMARK   32  A    between atoms: _76  and  _77
REMARK   33  A    between atoms: _76  and  _79
REMARK   34  A    between atoms: _79  and  _80
REMARK   35  A    between atoms: _83  and  _85
REMARK   36  A    between atoms: _85  and  _86
REMARK   37  A    between atoms: _85  and  _88
REMARK   38  A    between atoms: _88  and  _89
REMARK   39  A    between atoms: _92  and  _94
REMARK   40  A    between atoms: _94  and  _95
REMARK   41  A    between atoms: _94  and  _97
REMARK   42  A    between atoms: _100  and  _102
REMARK   43  A    between atoms: _102  and  _103
REMARK   44  A    between atoms: _102  and  _105
REMARK   45  A    between atoms: _105  and  _106
REMARK   46  A    between atoms: _106  and  _107
REMARK   47  A    between atoms: _107  and  _108
REMARK   48  A    between atoms: _108  and  _109
REMARK   49  A    between atoms: _113  and  _115
REMARK   50  A    between atoms: _115  and  _116
REMARK   51  A    between atoms: _115  and  _118
REMARK   52  A    between atoms: _118  and  _119
REMARK   53  A    between atoms: _119  and  _120
REMARK   54  A    between atoms: _122  and  _124
REMARK   55  A    between atoms: _124  and  _125
REMARK   56  A    between atoms: _124  and  _127
REMARK   57  A    between atoms: _127  and  _128
REMARK   58  A    between atoms: _131  and  _133
REMARK   59  A    between atoms: _133  and  _134
REMARK   60  A    between atoms: _136  and  _138
REMARK   61  A    between atoms: _138  and  _139
REMARK   62  A    between atoms: _141  and  _143
REMARK   63  A    between atoms: _143  and  _144
REMARK   64  A    between atoms: _143  and  _146
REMARK   65  A    between atoms: _146  and  _147
REMARK   66  A    between atoms: _150  and  _152
REMARK   67  A    between atoms: _152  and  _153
REMARK   68  A    between atoms: _155  and  _157
REMARK   69  A    between atoms: _157  and  _158
REMARK   70  A    between atoms: _160  and  _162
REMARK   71  A    between atoms: _162  and  _163
REMARK   72  A    between atoms: _162  and  _165
REMARK   73  A    between atoms: _165  and  _166
REMARK   74  A    between atoms: _172  and  _174
REMARK   75  A    between atoms: _174  and  _175
REMARK   76  A    between atoms: _174  and  _177
REMARK   77  A    between atoms: _180  and  _182
REMARK   78  A    between atoms: _182  and  _183
REMARK   79  A    between atoms: _182  and  _185
REMARK   80  A    between atoms: _188  and  _190
REMARK   81  A    between atoms: _190  and  _191
REMARK   82  A    between atoms: _190  and  _193
REMARK   83  A    between atoms: _193  and  _194
REMARK   84  A    between atoms: _198  and  _199
REMARK   85  A    between atoms: _204  and  _206
REMARK   86  A    between atoms: _206  and  _207
REMARK   87  A    between atoms: _206  and  _209
REMARK   88  A    between atoms: _209  and  _210
REMARK   89  A    between atoms: _214  and  _215
REMARK   90  A    between atoms: _220  and  _222
REMARK   91  A    between atoms: _222  and  _223
REMARK   92  A    between atoms: _222  and  _225
REMARK   93  A    between atoms: _228  and  _230
REMARK   94  A    between atoms: _230  and  _231
REMARK   95  A    between atoms: _230  and  _233
REMARK   96  A    between atoms: _233  and  _234
REMARK   97  A    between atoms: _239  and  _241
REMARK   98  A    between atoms: _241  and  _242
REMARK   99  A    between atoms: _241  and  _244
REMARK  100  A    between atoms: _244  and  _245
REMARK  101  A    between atoms: _248  and  _250
REMARK  102  A    between atoms: _250  and  _251
REMARK  103  A    between atoms: _250  and  _253
REMARK  104  A    between atoms: _253  and  _254
REMARK  105  A    between atoms: _257  and  _259
REMARK  106  A    between atoms: _259  and  _260
REMARK  107  A    between atoms: _262  and  _264
REMARK  108  A    between atoms: _264  and  _265
REMARK  109  A    between atoms: _264  and  _267
REMARK  110  A    between atoms: _267  and  _268
REMARK  111  A    between atoms: _268  and  _269
REMARK  112  A    between atoms: _269  and  _270
REMARK  113  A    between atoms: _279  and  _281
REMARK  114  A    between atoms: _281  and  _282
REMARK  115  A    between atoms: _281  and  _284
REMARK  116  A    between atoms: _284  and  _285
REMARK  117  A    between atoms: _290  and  _292
REMARK  118  A    between atoms: _292  and  _293
REMARK  119  A    between atoms: _292  and  _295
REMARK  120  A    between atoms: _295  and  _296
REMARK  121  A    between atoms: _296  and  _297
REMARK  122  A    between atoms: _297  and  _298
REMARK  123  A    between atoms: _307  and  _309
REMARK  124  A    between atoms: _309  and  _310
REMARK  125  A    between atoms: _309  and  _312
REMARK  126  A    between atoms: _312  and  _313
REMARK  127  A    between atoms: _316  and  _318
REMARK  128  A    between atoms: _318  and  _319
REMARK  129  A    between atoms: _318  and  _321
REMARK  130  A    between atoms: _321  and  _322
REMARK  131  A    between atoms: _325  and  _327
REMARK  132  A    between atoms: _327  and  _328
REMARK  133  A    between atoms: _327  and  _330
REMARK  134  A    between atoms: _330  and  _331
REMARK  135  A    between atoms: _334  and  _336
REMARK  136  A    between atoms: _336  and  _337
REMARK  137  A    between atoms: _336  and  _339
REMARK  138  A    between atoms: _339  and  _340
REMARK  139  A    between atoms: _343  and  _345
REMARK  140  A    between atoms: _345  and  _346
REMARK  141  A    between atoms: _348  and  _350
REMARK  142  A    between atoms: _350  and  _351
REMARK  143  A    between atoms: _354  and  _356
REMARK  144  A    between atoms: _356  and  _357
REMARK  145  A    between atoms: _356  and  _359
REMARK  146  A    between atoms: _359  and  _360
REMARK  147  A    between atoms: _363  and  _365
REMARK  148  A    between atoms: _365  and  _366
REMARK  149  A    between atoms: _365  and  _368
REMARK  150  A    between atoms: _368  and  _369
REMARK  151  A    between atoms: _372  and  _374
REMARK  152  A    between atoms: _374  and  _375
REMARK  153  A    between atoms: _374  and  _377
REMARK  154  A    between atoms: _377  and  _378
REMARK  155  A    between atoms: _381  and  _383
REMARK  156  A    between atoms: _383  and  _384
REMARK  157  A    between atoms: _383  and  _386
REMARK  158  A    between atoms: _389  and  _391
REMARK  159  A    between atoms: _391  and  _392
REMARK  160  A    between atoms: _391  and  _394
REMARK  161  A    between atoms: _394  and  _395
REMARK  162  A    between atoms: _395  and  _396
REMARK  163  A    between atoms: _396  and  _397
REMARK  164  A    between atoms: _397  and  _398
REMARK  165  A    between atoms: _402  and  _404
REMARK  166  A    between atoms: _404  and  _405
REMARK  167  A    between atoms: _404  and  _407
REMARK  168  A    between atoms: _407  and  _408
REMARK  169  A    between atoms: _408  and  _409
REMARK  170  A    between atoms: _411  and  _413
REMARK  171  A    between atoms: _413  and  _414
REMARK  172  A    between atoms: _413  and  _416
REMARK  173  A    between atoms: _416  and  _417
REMARK  174  A    between atoms: _420  and  _422
REMARK  175  A    between atoms: _422  and  _423
REMARK  176  A    between atoms: _425  and  _427
REMARK  177  A    between atoms: _427  and  _428
REMARK  178  A    between atoms: _430  and  _432
REMARK  179  A    between atoms: _432  and  _433
REMARK  180  A    between atoms: _432  and  _435
REMARK  181  A    between atoms: _435  and  _436
REMARK  182  A    between atoms: _439  and  _441
REMARK  183  A    between atoms: _441  and  _442
REMARK  184  A    between atoms: _444  and  _446
REMARK  185  A    between atoms: _446  and  _447
REMARK  186  A    between atoms: _449  and  _451
REMARK  187  A    between atoms: _451  and  _452
REMARK  188  A    between atoms: _451  and  _454
REMARK  189  A    between atoms: _454  and  _455
REMARK  190  A    between atoms: _461  and  _463
REMARK  191  A    between atoms: _463  and  _464
REMARK  192  A    between atoms: _463  and  _466
REMARK  193  A    between atoms: _469  and  _471
REMARK  194  A    between atoms: _471  and  _472
REMARK  195  A    between atoms: _471  and  _474
REMARK  196  A    between atoms: _477  and  _479
REMARK  197  A    between atoms: _479  and  _480
REMARK  198  A    between atoms: _479  and  _482
REMARK  199  A    between atoms: _482  and  _483
REMARK  200  A    between atoms: _487  and  _488
REMARK  201  A    between atoms: _493  and  _495
REMARK  202  A    between atoms: _495  and  _496
REMARK  203  A    between atoms: _495  and  _498
REMARK  204  A    between atoms: _498  and  _499
REMARK  205  A    between atoms: _503  and  _504
REMARK  206  A    between atoms: _509  and  _511
REMARK  207  A    between atoms: _511  and  _512
REMARK  208  A    between atoms: _511  and  _514
REMARK  209  A    between atoms: _517  and  _519
REMARK  210  A    between atoms: _519  and  _520
REMARK  211  A    between atoms: _519  and  _522
REMARK  212  A    between atoms: _522  and  _523
REMARK  213  A    between atoms: _528  and  _530
REMARK  214  A    between atoms: _530  and  _531
REMARK  215  A    between atoms: _530  and  _533
REMARK  216  A    between atoms: _533  and  _534
REMARK  217  A    between atoms: _537  and  _539
REMARK  218  A    between atoms: _539  and  _540
REMARK  219  A    between atoms: _539  and  _542
REMARK  220  A    between atoms: _542  and  _543
REMARK  221  A    between atoms: _546  and  _548
REMARK  222  A    between atoms: _548  and  _549
REMARK  223  A    between atoms: _551  and  _553
REMARK  224  A    between atoms: _553  and  _554
REMARK  225  A    between atoms: _553  and  _556
REMARK  226  A    between atoms: _556  and  _557
REMARK  227  A    between atoms: _557  and  _558
REMARK  228  A    between atoms: _558  and  _559
REMARK                            x       y       z     vdW  Elec       q    Type
REMARK                         _______ _______ _______ _____ _____    ______ ____
ROOT
ATOM      1  O   HOH     1      16.024  15.057   9.601  0.00  0.00    +0.000 OA
ENDROOT
TORSDOF 0
REMARK  Name = ../refined-set-2016/3d1y/3d1y_pocket.pdb
REMARK  228 active torsions:
REMARK  status: ('A' for Active; 'I' for Inactive)
REMARK    1  A    between atoms: _1  and  _3
REMARK    2  A    between atoms: _3  and  _4
REMARK    3  A    between atoms: _3  and  _6
REMARK    4  A    between atoms: _6  and  _7
REMARK    5  A    between atoms: _7  and  _8
REMARK    6  A    between atoms: _8  and  _9
REMARK    7  A    between atoms: _18  and  _20
REMARK    8  A    between atoms: _20  and  _21
REMARK    9  A    between atoms: _20  and  _23
REMARK   10  A    between atoms: _23  and  _24
REMARK   11  A    between atoms: _27  and  _29
REMARK   12  A    between atoms: _29  and  _30
REMARK   13  A    between atoms: _29  and  _32
REMARK   14  A    between atoms: _32  and  _33
REMARK   15  A    between atoms: _36  and  _38
REMARK   16  A    between atoms: _38  and  _39
REMARK   17  A    between atoms: _38  and  _41
REMARK   18  A    between atoms: _41  and  _42
REMARK   19  A    between atoms: _45  and  _47
REMARK   20  A    between atoms: _47  and  _48
REMARK   21  A    between atoms: _47  and  _50
REMARK   22  A    between atoms: _50  and  _51
REMARK   23  A    between atoms: _54  and  _56
REMARK   24  A    between atoms: _56  and  _57
REMARK   25  A    between atoms: _59  and  _61
REMARK   26  A    between atoms: _61  and  _62
REMARK   27  A    between atoms: _65  and  _67
REMARK   28  A    between atoms: _67  and  _68
REMARK   29  A    between atoms: _67  and  _70
REMARK   30  A    between atoms: _70  and  _71
REMARK   31  A    between atoms: _74  and  _76
REMARK   32  A    between atoms: _76  and  _77
REMARK   33  A    between atoms: _76  and  _79
REMARK   34  A    between atoms: _79  and  _80
REMARK   35  A    between atoms: _83  and  _85
REMARK   36  A    between atoms: _85  and  _86
REMARK   37  A    between atoms: _85  and  _88
REMARK   38  A    between atoms: _88  and  _89
REMARK   39  A    between atoms: _92  and  _94
REMARK   40  A    between atoms: _94  and  _95
REMARK   41  A    between atoms: _94  and  _97
REMARK   42  A    between atoms: _100  and  _102
REMARK   43  A    between atoms: _102  and  _103
REMARK   44  A    between atoms: _102  and  _105
REMARK   45  A    between atoms: _105  and  _106
REMARK   46  A    between atoms: _106  and  _107
REMARK   47  A    between atoms: _107  and  _108
REMARK   48  A    between atoms: _108  and  _109
REMARK   49  A    between atoms: _113  and  _115
REMARK   50  A    between atoms: _115  and  _116
REMARK   51  A    between atoms: _115  and  _118
REMARK   52  A    between atoms: _118  and  _119
REMARK   53  A    between atoms: _119  and  _120
REMARK   54  A    between atoms: _122  and  _124
REMARK   55  A    between atoms: _124  and  _125
REMARK   56  A    between atoms: _124  and  _127
REMARK   57  A    between atoms: _127  and  _128
REMARK   58  A    between atoms: _131  and  _133
REMARK   59  A    between atoms: _133  and  _134
REMARK   60  A    between atoms: _136  and  _138
REMARK   61  A    between atoms: _138  and  _139
REMARK   62  A    between atoms: _141  and  _143
REMARK   63  A    between atoms: _143  and  _144
REMARK   64  A    between atoms: _143  and  _146
REMARK   65  A    between atoms: _146  and  _147
REMARK   66  A    between atoms: _150  and  _152
REMARK   67  A    between atoms: _152  and  _153
REMARK   68  A    between atoms: _155  and  _157
REMARK   69  A    between atoms: _157  and  _158
REMARK   70  A    between atoms: _160  and  _162
REMARK   71  A    between atoms: _162  and  _163
REMARK   72  A    between atoms: _162  and  _165
REMARK   73  A    between atoms: _165  and  _166
REMARK   74  A    between atoms: _172  and  _174
REMARK   75  A    between atoms: _174  and  _175
REMARK   76  A    between atoms: _174  and  _177
REMARK   77  A    between atoms: _180  and  _182
REMARK   78  A    between atoms: _182  and  _183
REMARK   79  A    between atoms: _182  and  _185
REMARK   80  A    between atoms: _188  and  _190
REMARK   81  A    between atoms: _190  and  _191
REMARK   82  A    between atoms: _190  and  _193
REMARK   83  A    between atoms: _193  and  _194
REMARK   84  A    between atoms: _198  and  _199
REMARK   85  A    between atoms: _204  and  _206
REMARK   86  A    between atoms: _206  and  _207
REMARK   87  A    between atoms: _206  and  _209
REMARK   88  A    between atoms: _209  and  _210
REMARK   89  A    between atoms: _214  and  _215
REMARK   90  A    between atoms: _220  and  _222
REMARK   91  A    between atoms: _222  and  _223
REMARK   92  A    between atoms: _222  and  _225
REMARK   93  A    between atoms: _228  and  _230
REMARK   94  A    between atoms: _230  and  _231
REMARK   95  A    between atoms: _230  and  _233
REMARK   96  A    between atoms: _233  and  _234
REMARK   97  A    between atoms: _239  and  _241
REMARK   98  A    between atoms: _241  and  _242
REMARK   99  A    between atoms: _241  and  _244
REMARK  100  A    between atoms: _244  and  _245
REMARK  101  A    between atoms: _248  and  _250
REMARK  102  A    between atoms: _250  and  _251
REMARK  103  A    between atoms: _250  and  _253
REMARK  104  A    between atoms: _253  and  _254
REMARK  105  A    between atoms: _257  and  _259
REMARK  106  A    between atoms: _259  and  _260
REMARK  107  A    between atoms: _262  and  _264
REMARK  108  A    between atoms: _264  and  _265
REMARK  109  A    between atoms: _264  and  _267
REMARK  110  A    between atoms: _267  and  _268
REMARK  111  A    between atoms: _268  and  _269
REMARK  112  A    between atoms: _269  and  _270
REMARK  113  A    between atoms: _279  and  _281
REMARK  114  A    between atoms: _281  and  _282
REMARK  115  A    between atoms: _281  and  _284
REMARK  116  A    between atoms: _284  and  _285
REMARK  117  A    between atoms: _290  and  _292
REMARK  118  A    between atoms: _292  and  _293
REMARK  119  A    between atoms: _292  and  _295
REMARK  120  A    between atoms: _295  and  _296
REMARK  121  A    between atoms: _296  and  _297
REMARK  122  A    between atoms: _297  and  _298
REMARK  123  A    between atoms: _307  and  _309
REMARK  124  A    between atoms: _309  and  _310
REMARK  125  A    between atoms: _309  and  _312
REMARK  126  A    between atoms: _312  and  _313
REMARK  127  A    between atoms: _316  and  _318
REMARK  128  A    between atoms: _318  and  _319
REMARK  129  A    between atoms: _318  and  _321
REMARK  130  A    between atoms: _321  and  _322
REMARK  131  A    between atoms: _325  and  _327
REMARK  132  A    between atoms: _327  and  _328
REMARK  133  A    between atoms: _327  and  _330
REMARK  134  A    between atoms: _330  and  _331
REMARK  135  A    between atoms: _334  and  _336
REMARK  136  A    between atoms: _336  and  _337
REMARK  137  A    between atoms: _336  and  _339
REMARK  138  A    between atoms: _339  and  _340
REMARK  139  A    between atoms: _343  and  _345
REMARK  140  A    between atoms: _345  and  _346
REMARK  141  A    between atoms: _348  and  _350
REMARK  142  A    between atoms: _350  and  _351
REMARK  143  A    between atoms: _354  and  _356
REMARK  144  A    between atoms: _356  and  _357
REMARK  145  A    between atoms: _356  and  _359
REMARK  146  A    between atoms: _359  and  _360
REMARK  147  A    between atoms: _363  and  _365
REMARK  148  A    between atoms: _365  and  _366
REMARK  149  A    between atoms: _365  and  _368
REMARK  150  A    between atoms: _368  and  _369
REMARK  151  A    between atoms: _372  and  _374
REMARK  152  A    between atoms: _374  and  _375
REMARK  153  A    between atoms: _374  and  _377
REMARK  154  A    between atoms: _377  and  _378
REMARK  155  A    between atoms: _381  and  _383
REMARK  156  A    between atoms: _383  and  _384
REMARK  157  A    between atoms: _383  and  _386
REMARK  158  A    between atoms: _389  and  _391
REMARK  159  A    between atoms: _391  and  _392
REMARK  160  A    between atoms: _391  and  _394
REMARK  161  A    between atoms: _394  and  _395
REMARK  162  A    between atoms: _395  and  _396
REMARK  163  A    between atoms: _396  and  _397
REMARK  164  A    between atoms: _397  and  _398
REMARK  165  A    between atoms: _402  and  _404
REMARK  166  A    between atoms: _404  and  _405
REMARK  167  A    between atoms: _404  and  _407
REMARK  168  A    between atoms: _407  and  _408
REMARK  169  A    between atoms: _408  and  _409
REMARK  170  A    between atoms: _411  and  _413
REMARK  171  A    between atoms: _413  and  _414
REMARK  172  A    between atoms: _413  and  _416
REMARK  173  A    between atoms: _416  and  _417
REMARK  174  A    between atoms: _420  and  _422
REMARK  175  A    between atoms: _422  and  _423
REMARK  176  A    between atoms: _425  and  _427
REMARK  177  A    between atoms: _427  and  _428
REMARK  178  A    between atoms: _430  and  _432
REMARK  179  A    between atoms: _432  and  _433
REMARK  180  A    between atoms: _432  and  _435
REMARK  181  A    between atoms: _435  and  _436
REMARK  182  A    between atoms: _439  and  _441
REMARK  183  A    between atoms: _441  and  _442
REMARK  184  A    between atoms: _444  and  _446
REMARK  185  A    between atoms: _446  and  _447
REMARK  186  A    between atoms: _449  and  _451
REMARK  187  A    between atoms: _451  and  _452
REMARK  188  A    between atoms: _451  and  _454
REMARK  189  A    between atoms: _454  and  _455
REMARK  190  A    between atoms: _461  and  _463
REMARK  191  A    between atoms: _463  and  _464
REMARK  192  A    between atoms: _463  and  _466
REMARK  193  A    between atoms: _469  and  _471
REMARK  194  A    between atoms: _471  and  _472
REMARK  195  A    between atoms: _471  and  _474
REMARK  196  A    between atoms: _477  and  _479
REMARK  197  A    between atoms: _479  and  _480
REMARK  198  A    between atoms: _479  and  _482
REMARK  199  A    between atoms: _482  and  _483
REMARK  200  A    between atoms: _487  and  _488
REMARK  201  A    between atoms: _493  and  _495
REMARK  202  A    between atoms: _495  and  _496
REMARK  203  A    between atoms: _495  and  _498
REMARK  204  A    between atoms: _498  and  _499
REMARK  205  A    between atoms: _503  and  _504
REMARK  206  A    between atoms: _509  and  _511
REMARK  207  A    between atoms: _511  and  _512
REMARK  208  A    between atoms: _511  and  _514
REMARK  209  A    between atoms: _517  and  _519
REMARK  210  A    between atoms: _519  and  _520
REMARK  211  A    between atoms: _519  and  _522
REMARK  212  A    between atoms: _522  and  _523
REMARK  213  A    between atoms: _528  and  _530
REMARK  214  A    between atoms: _530  and  _531
REMARK  215  A    between atoms: _530  and  _533
REMARK  216  A    between atoms: _533  and  _534
REMARK  217  A    between atoms: _537  and  _539
REMARK  218  A    between atoms: _539  and  _540
REMARK  219  A    between atoms: _539  and  _542
REMARK  220  A    between atoms: _542  and  _543
REMARK  221  A    between atoms: _546  and  _548
REMARK  222  A    between atoms: _548  and  _549
REMARK  223  A    between atoms: _551  and  _553
REMARK  224  A    between atoms: _553  and  _554
REMARK  225  A    between atoms: _553  and  _556
REMARK  226  A    between atoms: _556  and  _557
REMARK  227  A    between atoms: _557  and  _558
REMARK  228  A    between atoms: _558  and  _559
REMARK                            x       y       z     vdW  Elec       q    Type
REMARK                         _______ _______ _______ _____ _____    ______ ____
ROOT
ATOM      1  O   HOH     1      27.369  27.917  23.648  0.00  0.00    +0.000 OA
ENDROOT
TORSDOF 0
REMARK  Name = ../refined-set-2016/3d1y/3d1y_pocket.pdb
REMARK  228 active torsions:
REMARK  status: ('A' for Active; 'I' for Inactive)
REMARK    1  A    between atoms: _1  and  _3
REMARK    2  A    between atoms: _3  and  _4
REMARK    3  A    between atoms: _3  and  _6
REMARK    4  A    between atoms: _6  and  _7
REMARK    5  A    between atoms: _7  and  _8
REMARK    6  A    between atoms: _8  and  _9
REMARK    7  A    between atoms: _18  and  _20
REMARK    8  A    between atoms: _20  and  _21
REMARK    9  A    between atoms: _20  and  _23
REMARK   10  A    between atoms: _23  and  _24
REMARK   11  A    between atoms: _27  and  _29
REMARK   12  A    between atoms: _29  and  _30
REMARK   13  A    between atoms: _29  and  _32
REMARK   14  A    between atoms: _32  and  _33
REMARK   15  A    between atoms: _36  and  _38
REMARK   16  A    between atoms: _38  and  _39
REMARK   17  A    between atoms: _38  and  _41
REMARK   18  A    between atoms: _41  and  _42
REMARK   19  A    between atoms: _45  and  _47
REMARK   20  A    between atoms: _47  and  _48
REMARK   21  A    between atoms: _47  and  _50
REMARK   22  A    between atoms: _50  and  _51
REMARK   23  A    between atoms: _54  and  _56
REMARK   24  A    between atoms: _56  and  _57
REMARK   25  A    between atoms: _59  and  _61
REMARK   26  A    between atoms: _61  and  _62
REMARK   27  A    between atoms: _65  and  _67
REMARK   28  A    between atoms: _67  and  _68
REMARK   29  A    between atoms: _67  and  _70
REMARK   30  A    between atoms: _70  and  _71
REMARK   31  A    between atoms: _74  and  _76
REMARK   32  A    between atoms: _76  and  _77
REMARK   33  A    between atoms: _76  and  _79
REMARK   34  A    between atoms: _79  and  _80
REMARK   35  A    between atoms: _83  and  _85
REMARK   36  A    between atoms: _85  and  _86
REMARK   37  A    between atoms: _85  and  _88
REMARK   38  A    between atoms: _88  and  _89
REMARK   39  A    between atoms: _92  and  _94
REMARK   40  A    between atoms: _94  and  _95
REMARK   41  A    between atoms: _94  and  _97
REMARK   42  A    between atoms: _100  and  _102
REMARK   43  A    between atoms: _102  and  _103
REMARK   44  A    between atoms: _102  and  _105
REMARK   45  A    between atoms: _105  and  _106
REMARK   46  A    between atoms: _106  and  _107
REMARK   47  A    between atoms: _107  and  _108
REMARK   48  A    between atoms: _108  and  _109
REMARK   49  A    between atoms: _113  and  _115
REMARK   50  A    between atoms: _115  and  _116
REMARK   51  A    between atoms: _115  and  _118
REMARK   52  A    between atoms: _118  and  _119
REMARK   53  A    between atoms: _119  and  _120
REMARK   54  A    between atoms: _122  and  _124
REMARK   55  A    between atoms: _124  and  _125
REMARK   56  A    between atoms: _124  and  _127
REMARK   57  A    between atoms: _127  and  _128
REMARK   58  A    between atoms: _131  and  _133
REMARK   59  A    between atoms: _133  and  _134
REMARK   60  A    between atoms: _136  and  _138
REMARK   61  A    between atoms: _138  and  _139
REMARK   62  A    between atoms: _141  and  _143
REMARK   63  A    between atoms: _143  and  _144
REMARK   64  A    between atoms: _143  and  _146
REMARK   65  A    between atoms: _146  and  _147
REMARK   66  A    between atoms: _150  and  _152
REMARK   67  A    between atoms: _152  and  _153
REMARK   68  A    between atoms: _155  and  _157
REMARK   69  A    between atoms: _157  and  _158
REMARK   70  A    between atoms: _160  and  _162
REMARK   71  A    between atoms: _162  and  _163
REMARK   72  A    between atoms: _162  and  _165
REMARK   73  A    between atoms: _165  and  _166
REMARK   74  A    between atoms: _172  and  _174
REMARK   75  A    between atoms: _174  and  _175
REMARK   76  A    between atoms: _174  and  _177
REMARK   77  A    between atoms: _180  and  _182
REMARK   78  A    between atoms: _182  and  _183
REMARK   79  A    between atoms: _182  and  _185
REMARK   80  A    between atoms: _188  and  _190
REMARK   81  A    between atoms: _190  and  _191
REMARK   82  A    between atoms: _190  and  _193
REMARK   83  A    between atoms: _193  and  _194
REMARK   84  A    between atoms: _198  and  _199
REMARK   85  A    between atoms: _204  and  _206
REMARK   86  A    between atoms: _206  and  _207
REMARK   87  A    between atoms: _206  and  _209
REMARK   88  A    between atoms: _209  and  _210
REMARK   89  A    between atoms: _214  and  _215
REMARK   90  A    between atoms: _220  and  _222
REMARK   91  A    between atoms: _222  and  _223
REMARK   92  A    between atoms: _222  and  _225
REMARK   93  A    between atoms: _228  and  _230
REMARK   94  A    between atoms: _230  and  _231
REMARK   95  A    between atoms: _230  and  _233
REMARK   96  A    between atoms: _233  and  _234
REMARK   97  A    between atoms: _239  and  _241
REMARK   98  A    between atoms: _241  and  _242
REMARK   99  A    between atoms: _241  and  _244
REMARK  100  A    between atoms: _244  and  _245
REMARK  101  A    between atoms: _248  and  _250
REMARK  102  A    between atoms: _250  and  _251
REMARK  103  A    between atoms: _250  and  _253
REMARK  104  A    between atoms: _253  and  _254
REMARK  105  A    between atoms: _257  and  _259
REMARK  106  A    between atoms: _259  and  _260
REMARK  107  A    between atoms: _262  and  _264
REMARK  108  A    between atoms: _264  and  _265
REMARK  109  A    between atoms: _264  and  _267
REMARK  110  A    between atoms: _267  and  _268
REMARK  111  A    between atoms: _268  and  _269
REMARK  112  A    between atoms: _269  and  _270
REMARK  113  A    between atoms: _279  and  _281
REMARK  114  A    between atoms: _281  and  _282
REMARK  115  A    between atoms: _281  and  _284
REMARK  116  A    between atoms: _284  and  _285
REMARK  117  A    between atoms: _290  and  _292
REMARK  118  A    between atoms: _292  and  _293
REMARK  119  A    between atoms: _292  and  _295
REMARK  120  A    between atoms: _295  and  _296
REMARK  121  A    between atoms: _296  and  _297
REMARK  122  A    between atoms: _297  and  _298
REMARK  123  A    between atoms: _307  and  _309
REMARK  124  A    between atoms: _309  and  _310
REMARK  125  A    between atoms: _309  and  _312
REMARK  126  A    between atoms: _312  and  _313
REMARK  127  A    between atoms: _316  and  _318
REMARK  128  A    between atoms: _318  and  _319
REMARK  129  A    between atoms: _318  and  _321
REMARK  130  A    between atoms: _321  and  _322
REMARK  131  A    between atoms: _325  and  _327
REMARK  132  A    between atoms: _327  and  _328
REMARK  133  A    between atoms: _327  and  _330
REMARK  134  A    between atoms: _330  and  _331
REMARK  135  A    between atoms: _334  and  _336
REMARK  136  A    between atoms: _336  and  _337
REMARK  137  A    between atoms: _336  and  _339
REMARK  138  A    between atoms: _339  and  _340
REMARK  139  A    between atoms: _343  and  _345
REMARK  140  A    between atoms: _345  and  _346
REMARK  141  A    between atoms: _348  and  _350
REMARK  142  A    between atoms: _350  and  _351
REMARK  143  A    between atoms: _354  and  _356
REMARK  144  A    between atoms: _356  and  _357
REMARK  145  A    between atoms: _356  and  _359
REMARK  146  A    between atoms: _359  and  _360
REMARK  147  A    between atoms: _363  and  _365
REMARK  148  A    between atoms: _365  and  _366
REMARK  149  A    between atoms: _365  and  _368
REMARK  150  A    between atoms: _368  and  _369
REMARK  151  A    between atoms: _372  and  _374
REMARK  152  A    between atoms: _374  and  _375
REMARK  153  A    between atoms: _374  and  _377
REMARK  154  A    between atoms: _377  and  _378
REMARK  155  A    between atoms: _381  and  _383
REMARK  156  A    between atoms: _383  and  _384
REMARK  157  A    between atoms: _383  and  _386
REMARK  158  A    between atoms: _389  and  _391
REMARK  159  A    between atoms: _391  and  _392
REMARK  160  A    between atoms: _391  and  _394
REMARK  161  A    between atoms: _394  and  _395
REMARK  162  A    between atoms: _395  and  _396
REMARK  163  A    between atoms: _396  and  _397
REMARK  164  A    between atoms: _397  and  _398
REMARK  165  A    between atoms: _402  and  _404
REMARK  166  A    between atoms: _404  and  _405
REMARK  167  A    between atoms: _404  and  _407
REMARK  168  A    between atoms: _407  and  _408
REMARK  169  A    between atoms: _408  and  _409
REMARK  170  A    between atoms: _411  and  _413
REMARK  171  A    between atoms: _413  and  _414
REMARK  172  A    between atoms: _413  and  _416
REMARK  173  A    between atoms: _416  and  _417
REMARK  174  A    between atoms: _420  and  _422
REMARK  175  A    between atoms: _422  and  _423
REMARK  176  A    between atoms: _425  and  _427
REMARK  177  A    between atoms: _427  and  _428
REMARK  178  A    between atoms: _430  and  _432
REMARK  179  A    between atoms: _432  and  _433
REMARK  180  A    between atoms: _432  and  _435
REMARK  181  A    between atoms: _435  and  _436
REMARK  182  A    between atoms: _439  and  _441
REMARK  183  A    between atoms: _441  and  _442
REMARK  184  A    between atoms: _444  and  _446
REMARK  185  A    between atoms: _446  and  _447
REMARK  186  A    between atoms: _449  and  _451
REMARK  187  A    between atoms: _451  and  _452
REMARK  188  A    between atoms: _451  and  _454
REMARK  189  A    between atoms: _454  and  _455
REMARK  190  A    between atoms: _461  and  _463
REMARK  191  A    between atoms: _463  and  _464
REMARK  192  A    between atoms: _463  and  _466
REMARK  193  A    between atoms: _469  and  _471
REMARK  194  A    between atoms: _471  and  _472
REMARK  195  A    between atoms: _471  and  _474
REMARK  196  A    between atoms: _477  and  _479
REMARK  197  A    between atoms: _479  and  _480
REMARK  198  A    between atoms: _479  and  _482
REMARK  199  A    between atoms: _482  and  _483
REMARK  200  A    between atoms: _487  and  _488
REMARK  201  A    between atoms: _493  and  _495
REMARK  202  A    between atoms: _495  and  _496
REMARK  203  A    between atoms: _495  and  _498
REMARK  204  A    between atoms: _498  and  _499
REMARK  205  A    between atoms: _503  and  _504
REMARK  206  A    between atoms: _509  and  _511
REMARK  207  A    between atoms: _511  and  _512
REMARK  208  A    between atoms: _511  and  _514
REMARK  209  A    between atoms: _517  and  _519
REMARK  210  A    between atoms: _519  and  _520
REMARK  211  A    between atoms: _519  and  _522
REMARK  212  A    between atoms: _522  and  _523
REMARK  213  A    between atoms: _528  and  _530
REMARK  214  A    between atoms: _530  and  _531
REMARK  215  A    between atoms: _530  and  _533
REMARK  216  A    between atoms: _533  and  _534
REMARK  217  A    between atoms: _537  and  _539
REMARK  218  A    between atoms: _539  and  _540
REMARK  219  A    between atoms: _539  and  _542
REMARK  220  A    between atoms: _542  and  _543
REMARK  221  A    between atoms: _546  and  _548
REMARK  222  A    between atoms: _548  and  _549
REMARK  223  A    between atoms: _551  and  _553
REMARK  224  A    between atoms: _553  and  _554
REMARK  225  A    between atoms: _553  and  _556
REMARK  226  A    between atoms: _556  and  _557
REMARK  227  A    between atoms: _557  and  _558
REMARK  228  A    between atoms: _558  and  _559
REMARK                            x       y       z     vdW  Elec       q    Type
REMARK                         _______ _______ _______ _____ _____    ______ ____
ROOT
ATOM      1  O   HOH     1      11.612  17.242  15.715  0.00  0.00    +0.000 OA
ENDROOT
TORSDOF 0
REMARK  Name = ../refined-set-2016/3d1y/3d1y_pocket.pdb
REMARK  228 active torsions:
REMARK  status: ('A' for Active; 'I' for Inactive)
REMARK    1  A    between atoms: _1  and  _3
REMARK    2  A    between atoms: _3  and  _4
REMARK    3  A    between atoms: _3  and  _6
REMARK    4  A    between atoms: _6  and  _7
REMARK    5  A    between atoms: _7  and  _8
REMARK    6  A    between atoms: _8  and  _9
REMARK    7  A    between atoms: _18  and  _20
REMARK    8  A    between atoms: _20  and  _21
REMARK    9  A    between atoms: _20  and  _23
REMARK   10  A    between atoms: _23  and  _24
REMARK   11  A    between atoms: _27  and  _29
REMARK   12  A    between atoms: _29  and  _30
REMARK   13  A    between atoms: _29  and  _32
REMARK   14  A    between atoms: _32  and  _33
REMARK   15  A    between atoms: _36  and  _38
REMARK   16  A    between atoms: _38  and  _39
REMARK   17  A    between atoms: _38  and  _41
REMARK   18  A    between atoms: _41  and  _42
REMARK   19  A    between atoms: _45  and  _47
REMARK   20  A    between atoms: _47  and  _48
REMARK   21  A    between atoms: _47  and  _50
REMARK   22  A    between atoms: _50  and  _51
REMARK   23  A    between atoms: _54  and  _56
REMARK   24  A    between atoms: _56  and  _57
REMARK   25  A    between atoms: _59  and  _61
REMARK   26  A    between atoms: _61  and  _62
REMARK   27  A    between atoms: _65  and  _67
REMARK   28  A    between atoms: _67  and  _68
REMARK   29  A    between atoms: _67  and  _70
REMARK   30  A    between atoms: _70  and  _71
REMARK   31  A    between atoms: _74  and  _76
REMARK   32  A    between atoms: _76  and  _77
REMARK   33  A    between atoms: _76  and  _79
REMARK   34  A    between atoms: _79  and  _80
REMARK   35  A    between atoms: _83  and  _85
REMARK   36  A    between atoms: _85  and  _86
REMARK   37  A    between atoms: _85  and  _88
REMARK   38  A    between atoms: _88  and  _89
REMARK   39  A    between atoms: _92  and  _94
REMARK   40  A    between atoms: _94  and  _95
REMARK   41  A    between atoms: _94  and  _97
REMARK   42  A    between atoms: _100  and  _102
REMARK   43  A    between atoms: _102  and  _103
REMARK   44  A    between atoms: _102  and  _105
REMARK   45  A    between atoms: _105  and  _106
REMARK   46  A    between atoms: _106  and  _107
REMARK   47  A    between atoms: _107  and  _108
REMARK   48  A    between atoms: _108  and  _109
REMARK   49  A    between atoms: _113  and  _115
REMARK   50  A    between atoms: _115  and  _116
REMARK   51  A    between atoms: _115  and  _118
REMARK   52  A    between atoms: _118  and  _119
REMARK   53  A    between atoms: _119  and  _120
REMARK   54  A    between atoms: _122  and  _124
REMARK   55  A    between atoms: _124  and  _125
REMARK   56  A    between atoms: _124  and  _127
REMARK   57  A    between atoms: _127  and  _128
REMARK   58  A    between atoms: _131  and  _133
REMARK   59  A    between atoms: _133  and  _134
REMARK   60  A    between atoms: _136  and  _138
REMARK   61  A    between atoms: _138  and  _139
REMARK   62  A    between atoms: _141  and  _143
REMARK   63  A    between atoms: _143  and  _144
REMARK   64  A    between atoms: _143  and  _146
REMARK   65  A    between atoms: _146  and  _147
REMARK   66  A    between atoms: _150  and  _152
REMARK   67  A    between atoms: _152  and  _153
REMARK   68  A    between atoms: _155  and  _157
REMARK   69  A    between atoms: _157  and  _158
REMARK   70  A    between atoms: _160  and  _162
REMARK   71  A    between atoms: _162  and  _163
REMARK   72  A    between atoms: _162  and  _165
REMARK   73  A    between atoms: _165  and  _166
REMARK   74  A    between atoms: _172  and  _174
REMARK   75  A    between atoms: _174  and  _175
REMARK   76  A    between atoms: _174  and  _177
REMARK   77  A    between atoms: _180  and  _182
REMARK   78  A    between atoms: _182  and  _183
REMARK   79  A    between atoms: _182  and  _185
REMARK   80  A    between atoms: _188  and  _190
REMARK   81  A    between atoms: _190  and  _191
REMARK   82  A    between atoms: _190  and  _193
REMARK   83  A    between atoms: _193  and  _194
REMARK   84  A    between atoms: _198  and  _199
REMARK   85  A    between atoms: _204  and  _206
REMARK   86  A    between atoms: _206  and  _207
REMARK   87  A    between atoms: _206  and  _209
REMARK   88  A    between atoms: _209  and  _210
REMARK   89  A    between atoms: _214  and  _215
REMARK   90  A    between atoms: _220  and  _222
REMARK   91  A    between atoms: _222  and  _223
REMARK   92  A    between atoms: _222  and  _225
REMARK   93  A    between atoms: _228  and  _230
REMARK   94  A    between atoms: _230  and  _231
REMARK   95  A    between atoms: _230  and  _233
REMARK   96  A    between atoms: _233  and  _234
REMARK   97  A    between atoms: _239  and  _241
REMARK   98  A    between atoms: _241  and  _242
REMARK   99  A    between atoms: _241  and  _244
REMARK  100  A    between atoms: _244  and  _245
REMARK  101  A    between atoms: _248  and  _250
REMARK  102  A    between atoms: _250  and  _251
REMARK  103  A    between atoms: _250  and  _253
REMARK  104  A    between atoms: _253  and  _254
REMARK  105  A    between atoms: _257  and  _259
REMARK  106  A    between atoms: _259  and  _260
REMARK  107  A    between atoms: _262  and  _264
REMARK  108  A    between atoms: _264  and  _265
REMARK  109  A    between atoms: _264  and  _267
REMARK  110  A    between atoms: _267  and  _268
REMARK  111  A    between atoms: _268  and  _269
REMARK  112  A    between atoms: _269  and  _270
REMARK  113  A    between atoms: _279  and  _281
REMARK  114  A    between atoms: _281  and  _282
REMARK  115  A    between atoms: _281  and  _284
REMARK  116  A    between atoms: _284  and  _285
REMARK  117  A    between atoms: _290  and  _292
REMARK  118  A    between atoms: _292  and  _293
REMARK  119  A    between atoms: _292  and  _295
REMARK  120  A    between atoms: _295  and  _296
REMARK  121  A    between atoms: _296  and  _297
REMARK  122  A    between atoms: _297  and  _298
REMARK  123  A    between atoms: _307  and  _309
REMARK  124  A    between atoms: _309  and  _310
REMARK  125  A    between atoms: _309  and  _312
REMARK  126  A    between atoms: _312  and  _313
REMARK  127  A    between atoms: _316  and  _318
REMARK  128  A    between atoms: _318  and  _319
REMARK  129  A    between atoms: _318  and  _321
REMARK  130  A    between atoms: _321  and  _322
REMARK  131  A    between atoms: _325  and  _327
REMARK  132  A    between atoms: _327  and  _328
REMARK  133  A    between atoms: _327  and  _330
REMARK  134  A    between atoms: _330  and  _331
REMARK  135  A    between atoms: _334  and  _336
REMARK  136  A    between atoms: _336  and  _337
REMARK  137  A    between atoms: _336  and  _339
REMARK  138  A    between atoms: _339  and  _340
REMARK  139  A    between atoms: _343  and  _345
REMARK  140  A    between atoms: _345  and  _346
REMARK  141  A    between atoms: _348  and  _350
REMARK  142  A    between atoms: _350  and  _351
REMARK  143  A    between atoms: _354  and  _356
REMARK  144  A    between atoms: _356  and  _357
REMARK  145  A    between atoms: _356  and  _359
REMARK  146  A    between atoms: _359  and  _360
REMARK  147  A    between atoms: _363  and  _365
REMARK  148  A    between atoms: _365  and  _366
REMARK  149  A    between atoms: _365  and  _368
REMARK  150  A    between atoms: _368  and  _369
REMARK  151  A    between atoms: _372  and  _374
REMARK  152  A    between atoms: _374  and  _375
REMARK  153  A    between atoms: _374  and  _377
REMARK  154  A    between atoms: _377  and  _378
REMARK  155  A    between atoms: _381  and  _383
REMARK  156  A    between atoms: _383  and  _384
REMARK  157  A    between atoms: _383  and  _386
REMARK  158  A    between atoms: _389  and  _391
REMARK  159  A    between atoms: _391  and  _392
REMARK  160  A    between atoms: _391  and  _394
REMARK  161  A    between atoms: _394  and  _395
REMARK  162  A    between atoms: _395  and  _396
REMARK  163  A    between atoms: _396  and  _397
REMARK  164  A    between atoms: _397  and  _398
REMARK  165  A    between atoms: _402  and  _404
REMARK  166  A    between atoms: _404  and  _405
REMARK  167  A    between atoms: _404  and  _407
REMARK  168  A    between atoms: _407  and  _408
REMARK  169  A    between atoms: _408  and  _409
REMARK  170  A    between atoms: _411  and  _413
REMARK  171  A    between atoms: _413  and  _414
REMARK  172  A    between atoms: _413  and  _416
REMARK  173  A    between atoms: _416  and  _417
REMARK  174  A    between atoms: _420  and  _422
REMARK  175  A    between atoms: _422  and  _423
REMARK  176  A    between atoms: _425  and  _427
REMARK  177  A    between atoms: _427  and  _428
REMARK  178  A    between atoms: _430  and  _432
REMARK  179  A    between atoms: _432  and  _433
REMARK  180  A    between atoms: _432  and  _435
REMARK  181  A    between atoms: _435  and  _436
REMARK  182  A    between atoms: _439  and  _441
REMARK  183  A    between atoms: _441  and  _442
REMARK  184  A    between atoms: _444  and  _446
REMARK  185  A    between atoms: _446  and  _447
REMARK  186  A    between atoms: _449  and  _451
REMARK  187  A    between atoms: _451  and  _452
REMARK  188  A    between atoms: _451  and  _454
REMARK  189  A    between atoms: _454  and  _455
REMARK  190  A    between atoms: _461  and  _463
REMARK  191  A    between atoms: _463  and  _464
REMARK  192  A    between atoms: _463  and  _466
REMARK  193  A    between atoms: _469  and  _471
REMARK  194  A    between atoms: _471  and  _472
REMARK  195  A    between atoms: _471  and  _474
REMARK  196  A    between atoms: _477  and  _479
REMARK  197  A    between atoms: _479  and  _480
REMARK  198  A    between atoms: _479  and  _482
REMARK  199  A    between atoms: _482  and  _483
REMARK  200  A    between atoms: _487  and  _488
REMARK  201  A    between atoms: _493  and  _495
REMARK  202  A    between atoms: _495  and  _496
REMARK  203  A    between atoms: _495  and  _498
REMARK  204  A    between atoms: _498  and  _499
REMARK  205  A    between atoms: _503  and  _504
REMARK  206  A    between atoms: _509  and  _511
REMARK  207  A    between atoms: _511  and  _512
REMARK  208  A    between atoms: _511  and  _514
REMARK  209  A    between atoms: _517  and  _519
REMARK  210  A    between atoms: _519  and  _520
REMARK  211  A    between atoms: _519  and  _522
REMARK  212  A    between atoms: _522  and  _523
REMARK  213  A    between atoms: _528  and  _530
REMARK  214  A    between atoms: _530  and  _531
REMARK  215  A    between atoms: _530  and  _533
REMARK  216  A    between atoms: _533  and  _534
REMARK  217  A    between atoms: _537  and  _539
REMARK  218  A    between atoms: _539  and  _540
REMARK  219  A    between atoms: _539  and  _542
REMARK  220  A    between atoms: _542  and  _543
REMARK  221  A    between atoms: _546  and  _548
REMARK  222  A    between atoms: _548  and  _549
REMARK  223  A    between atoms: _551  and  _553
REMARK  224  A    between atoms: _553  and  _554
REMARK  225  A    between atoms: _553  and  _556
REMARK  226  A    between atoms: _556  and  _557
REMARK  227  A    between atoms: _557  and  _558
REMARK  228  A    between atoms: _558  and  _559
REMARK                            x       y       z     vdW  Elec       q    Type
REMARK                         _______ _______ _______ _____ _____    ______ ____
ROOT
ATOM      1  O   HOH     1      27.235  27.906  21.354  0.00  0.00    +0.000 OA
ENDROOT
TORSDOF 0
REMARK  Name = ../refined-set-2016/3d1y/3d1y_pocket.pdb
REMARK  228 active torsions:
REMARK  status: ('A' for Active; 'I' for Inactive)
REMARK    1  A    between atoms: _1  and  _3
REMARK    2  A    between atoms: _3  and  _4
REMARK    3  A    between atoms: _3  and  _6
REMARK    4  A    between atoms: _6  and  _7
REMARK    5  A    between atoms: _7  and  _8
REMARK    6  A    between atoms: _8  and  _9
REMARK    7  A    between atoms: _18  and  _20
REMARK    8  A    between atoms: _20  and  _21
REMARK    9  A    between atoms: _20  and  _23
REMARK   10  A    between atoms: _23  and  _24
REMARK   11  A    between atoms: _27  and  _29
REMARK   12  A    between atoms: _29  and  _30
REMARK   13  A    between atoms: _29  and  _32
REMARK   14  A    between atoms: _32  and  _33
REMARK   15  A    between atoms: _36  and  _38
REMARK   16  A    between atoms: _38  and  _39
REMARK   17  A    between atoms: _38  and  _41
REMARK   18  A    between atoms: _41  and  _42
REMARK   19  A    between atoms: _45  and  _47
REMARK   20  A    between atoms: _47  and  _48
REMARK   21  A    between atoms: _47  and  _50
REMARK   22  A    between atoms: _50  and  _51
REMARK   23  A    between atoms: _54  and  _56
REMARK   24  A    between atoms: _56  and  _57
REMARK   25  A    between atoms: _59  and  _61
REMARK   26  A    between atoms: _61  and  _62
REMARK   27  A    between atoms: _65  and  _67
REMARK   28  A    between atoms: _67  and  _68
REMARK   29  A    between atoms: _67  and  _70
REMARK   30  A    between atoms: _70  and  _71
REMARK   31  A    between atoms: _74  and  _76
REMARK   32  A    between atoms: _76  and  _77
REMARK   33  A    between atoms: _76  and  _79
REMARK   34  A    between atoms: _79  and  _80
REMARK   35  A    between atoms: _83  and  _85
REMARK   36  A    between atoms: _85  and  _86
REMARK   37  A    between atoms: _85  and  _88
REMARK   38  A    between atoms: _88  and  _89
REMARK   39  A    between atoms: _92  and  _94
REMARK   40  A    between atoms: _94  and  _95
REMARK   41  A    between atoms: _94  and  _97
REMARK   42  A    between atoms: _100  and  _102
REMARK   43  A    between atoms: _102  and  _103
REMARK   44  A    between atoms: _102  and  _105
REMARK   45  A    between atoms: _105  and  _106
REMARK   46  A    between atoms: _106  and  _107
REMARK   47  A    between atoms: _107  and  _108
REMARK   48  A    between atoms: _108  and  _109
REMARK   49  A    between atoms: _113  and  _115
REMARK   50  A    between atoms: _115  and  _116
REMARK   51  A    between atoms: _115  and  _118
REMARK   52  A    between atoms: _118  and  _119
REMARK   53  A    between atoms: _119  and  _120
REMARK   54  A    between atoms: _122  and  _124
REMARK   55  A    between atoms: _124  and  _125
REMARK   56  A    between atoms: _124  and  _127
REMARK   57  A    between atoms: _127  and  _128
REMARK   58  A    between atoms: _131  and  _133
REMARK   59  A    between atoms: _133  and  _134
REMARK   60  A    between atoms: _136  and  _138
REMARK   61  A    between atoms: _138  and  _139
REMARK   62  A    between atoms: _141  and  _143
REMARK   63  A    between atoms: _143  and  _144
REMARK   64  A    between atoms: _143  and  _146
REMARK   65  A    between atoms: _146  and  _147
REMARK   66  A    between atoms: _150  and  _152
REMARK   67  A    between atoms: _152  and  _153
REMARK   68  A    between atoms: _155  and  _157
REMARK   69  A    between atoms: _157  and  _158
REMARK   70  A    between atoms: _160  and  _162
REMARK   71  A    between atoms: _162  and  _163
REMARK   72  A    between atoms: _162  and  _165
REMARK   73  A    between atoms: _165  and  _166
REMARK   74  A    between atoms: _172  and  _174
REMARK   75  A    between atoms: _174  and  _175
REMARK   76  A    between atoms: _174  and  _177
REMARK   77  A    between atoms: _180  and  _182
REMARK   78  A    between atoms: _182  and  _183
REMARK   79  A    between atoms: _182  and  _185
REMARK   80  A    between atoms: _188  and  _190
REMARK   81  A    between atoms: _190  and  _191
REMARK   82  A    between atoms: _190  and  _193
REMARK   83  A    between atoms: _193  and  _194
REMARK   84  A    between atoms: _198  and  _199
REMARK   85  A    between atoms: _204  and  _206
REMARK   86  A    between atoms: _206  and  _207
REMARK   87  A    between atoms: _206  and  _209
REMARK   88  A    between atoms: _209  and  _210
REMARK   89  A    between atoms: _214  and  _215
REMARK   90  A    between atoms: _220  and  _222
REMARK   91  A    between atoms: _222  and  _223
REMARK   92  A    between atoms: _222  and  _225
REMARK   93  A    between atoms: _228  and  _230
REMARK   94  A    between atoms: _230  and  _231
REMARK   95  A    between atoms: _230  and  _233
REMARK   96  A    between atoms: _233  and  _234
REMARK   97  A    between atoms: _239  and  _241
REMARK   98  A    between atoms: _241  and  _242
REMARK   99  A    between atoms: _241  and  _244
REMARK  100  A    between atoms: _244  and  _245
REMARK  101  A    between atoms: _248  and  _250
REMARK  102  A    between atoms: _250  and  _251
REMARK  103  A    between atoms: _250  and  _253
REMARK  104  A    between atoms: _253  and  _254
REMARK  105  A    between atoms: _257  and  _259
REMARK  106  A    between atoms: _259  and  _260
REMARK  107  A    between atoms: _262  and  _264
REMARK  108  A    between atoms: _264  and  _265
REMARK  109  A    between atoms: _264  and  _267
REMARK  110  A    between atoms: _267  and  _268
REMARK  111  A    between atoms: _268  and  _269
REMARK  112  A    between atoms: _269  and  _270
REMARK  113  A    between atoms: _279  and  _281
REMARK  114  A    between atoms: _281  and  _282
REMARK  115  A    between atoms: _281  and  _284
REMARK  116  A    between atoms: _284  and  _285
REMARK  117  A    between atoms: _290  and  _292
REMARK  118  A    between atoms: _292  and  _293
REMARK  119  A    between atoms: _292  and  _295
REMARK  120  A    between atoms: _295  and  _296
REMARK  121  A    between atoms: _296  and  _297
REMARK  122  A    between atoms: _297  and  _298
REMARK  123  A    between atoms: _307  and  _309
REMARK  124  A    between atoms: _309  and  _310
REMARK  125  A    between atoms: _309  and  _312
REMARK  126  A    between atoms: _312  and  _313
REMARK  127  A    between atoms: _316  and  _318
REMARK  128  A    between atoms: _318  and  _319
REMARK  129  A    between atoms: _318  and  _321
REMARK  130  A    between atoms: _321  and  _322
REMARK  131  A    between atoms: _325  and  _327
REMARK  132  A    between atoms: _327  and  _328
REMARK  133  A    between atoms: _327  and  _330
REMARK  134  A    between atoms: _330  and  _331
REMARK  135  A    between atoms: _334  and  _336
REMARK  136  A    between atoms: _336  and  _337
REMARK  137  A    between atoms: _336  and  _339
REMARK  138  A    between atoms: _339  and  _340
REMARK  139  A    between atoms: _343  and  _345
REMARK  140  A    between atoms: _345  and  _346
REMARK  141  A    between atoms: _348  and  _350
REMARK  142  A    between atoms: _350  and  _351
REMARK  143  A    between atoms: _354  and  _356
REMARK  144  A    between atoms: _356  and  _357
REMARK  145  A    between atoms: _356  and  _359
REMARK  146  A    between atoms: _359  and  _360
REMARK  147  A    between atoms: _363  and  _365
REMARK  148  A    between atoms: _365  and  _366
REMARK  149  A    between atoms: _365  and  _368
REMARK  150  A    between atoms: _368  and  _369
REMARK  151  A    between atoms: _372  and  _374
REMARK  152  A    between atoms: _374  and  _375
REMARK  153  A    between atoms: _374  and  _377
REMARK  154  A    between atoms: _377  and  _378
REMARK  155  A    between atoms: _381  and  _383
REMARK  156  A    between atoms: _383  and  _384
REMARK  157  A    between atoms: _383  and  _386
REMARK  158  A    between atoms: _389  and  _391
REMARK  159  A    between atoms: _391  and  _392
REMARK  160  A    between atoms: _391  and  _394
REMARK  161  A    between atoms: _394  and  _395
REMARK  162  A    between atoms: _395  and  _396
REMARK  163  A    between atoms: _396  and  _397
REMARK  164  A    between atoms: _397  and  _398
REMARK  165  A    between atoms: _402  and  _404
REMARK  166  A    between atoms: _404  and  _405
REMARK  167  A    between atoms: _404  and  _407
REMARK  168  A    between atoms: _407  and  _408
REMARK  169  A    between atoms: _408  and  _409
REMARK  170  A    between atoms: _411  and  _413
REMARK  171  A    between atoms: _413  and  _414
REMARK  172  A    between atoms: _413  and  _416
REMARK  173  A    between atoms: _416  and  _417
REMARK  174  A    between atoms: _420  and  _422
REMARK  175  A    between atoms: _422  and  _423
REMARK  176  A    between atoms: _425  and  _427
REMARK  177  A    between atoms: _427  and  _428
REMARK  178  A    between atoms: _430  and  _432
REMARK  179  A    between atoms: _432  and  _433
REMARK  180  A    between atoms: _432  and  _435
REMARK  181  A    between atoms: _435  and  _436
REMARK  182  A    between atoms: _439  and  _441
REMARK  183  A    between atoms: _441  and  _442
REMARK  184  A    between atoms: _444  and  _446
REMARK  185  A    between atoms: _446  and  _447
REMARK  186  A    between atoms: _449  and  _451
REMARK  187  A    between atoms: _451  and  _452
REMARK  188  A    between atoms: _451  and  _454
REMARK  189  A    between atoms: _454  and  _455
REMARK  190  A    between atoms: _461  and  _463
REMARK  191  A    between atoms: _463  and  _464
REMARK  192  A    between atoms: _463  and  _466
REMARK  193  A    between atoms: _469  and  _471
REMARK  194  A    between atoms: _471  and  _472
REMARK  195  A    between atoms: _471  and  _474
REMARK  196  A    between atoms: _477  and  _479
REMARK  197  A    between atoms: _479  and  _480
REMARK  198  A    between atoms: _479  and  _482
REMARK  199  A    between atoms: _482  and  _483
REMARK  200  A    between atoms: _487  and  _488
REMARK  201  A    between atoms: _493  and  _495
REMARK  202  A    between atoms: _495  and  _496
REMARK  203  A    between atoms: _495  and  _498
REMARK  204  A    between atoms: _498  and  _499
REMARK  205  A    between atoms: _503  and  _504
REMARK  206  A    between atoms: _509  and  _511
REMARK  207  A    between atoms: _511  and  _512
REMARK  208  A    between atoms: _511  and  _514
REMARK  209  A    between atoms: _517  and  _519
REMARK  210  A    between atoms: _519  and  _520
REMARK  211  A    between atoms: _519  and  _522
REMARK  212  A    between atoms: _522  and  _523
REMARK  213  A    between atoms: _528  and  _530
REMARK  214  A    between atoms: _530  and  _531
REMARK  215  A    between atoms: _530  and  _533
REMARK  216  A    between atoms: _533  and  _534
REMARK  217  A    between atoms: _537  and  _539
REMARK  218  A    between atoms: _539  and  _540
REMARK  219  A    between atoms: _539  and  _542
REMARK  220  A    between atoms: _542  and  _543
REMARK  221  A    between atoms: _546  and  _548
REMARK  222  A    between atoms: _548  and  _549
REMARK  223  A    between atoms: _551  and  _553
REMARK  224  A    between atoms: _553  and  _554
REMARK  225  A    between atoms: _553  and  _556
REMARK  226  A    between atoms: _556  and  _557
REMARK  227  A    between atoms: _557  and  _558
REMARK  228  A    between atoms: _558  and  _559
REMARK                            x       y       z     vdW  Elec       q    Type
REMARK                         _______ _______ _______ _____ _____    ______ ____
ROOT
ATOM      1  O   HOH     1      12.602  16.298  11.996  0.00  0.00    +0.000 OA
ENDROOT
TORSDOF 0
