REMARK  Name = ../refined-set-2016/1ohr/1ohr_pocket.pdb
REMARK  212 active torsions:
REMARK  status: ('A' for Active; 'I' for Inactive)
REMARK    1  A    between atoms: _1  and  _3
REMARK    2  A    between atoms: _3  and  _4
REMARK    3  A    between atoms: _3  and  _6
REMARK    4  A    between atoms: _6  and  _7
REMARK    5  A    between atoms: _7  and  _8
REMARK    6  A    between atoms: _8  and  _9
REMARK    7  A    between atoms: _18  and  _20
REMARK    8  A    between atoms: _20  and  _21
REMARK    9  A    between atoms: _20  and  _23
REMARK   10  A    between atoms: _23  and  _24
REMARK   11  A    between atoms: _27  and  _29
REMARK   12  A    between atoms: _29  and  _30
REMARK   13  A    between atoms: _29  and  _32
REMARK   14  A    between atoms: _32  and  _33
REMARK   15  A    between atoms: _36  and  _38
REMARK   16  A    between atoms: _38  and  _39
REMARK   17  A    between atoms: _38  and  _41
REMARK   18  A    between atoms: _41  and  _42
REMARK   19  A    between atoms: _45  and  _47
REMARK   20  A    between atoms: _47  and  _48
REMARK   21  A    between atoms: _47  and  _50
REMARK   22  A    between atoms: _50  and  _51
REMARK   23  A    between atoms: _54  and  _56
REMARK   24  A    between atoms: _56  and  _57
REMARK   25  A    between atoms: _59  and  _61
REMARK   26  A    between atoms: _61  and  _62
REMARK   27  A    between atoms: _65  and  _67
REMARK   28  A    between atoms: _67  and  _68
REMARK   29  A    between atoms: _67  and  _70
REMARK   30  A    between atoms: _70  and  _71
REMARK   31  A    between atoms: _74  and  _76
REMARK   32  A    between atoms: _76  and  _77
REMARK   33  A    between atoms: _76  and  _79
REMARK   34  A    between atoms: _79  and  _80
REMARK   35  A    between atoms: _83  and  _85
REMARK   36  A    between atoms: _85  and  _86
REMARK   37  A    between atoms: _85  and  _88
REMARK   38  A    between atoms: _88  and  _89
REMARK   39  A    between atoms: _92  and  _94
REMARK   40  A    between atoms: _94  and  _95
REMARK   41  A    between atoms: _94  and  _97
REMARK   42  A    between atoms: _100  and  _102
REMARK   43  A    between atoms: _102  and  _103
REMARK   44  A    between atoms: _102  and  _105
REMARK   45  A    between atoms: _105  and  _106
REMARK   46  A    between atoms: _106  and  _107
REMARK   47  A    between atoms: _109  and  _111
REMARK   48  A    between atoms: _111  and  _112
REMARK   49  A    between atoms: _111  and  _114
REMARK   50  A    between atoms: _114  and  _115
REMARK   51  A    between atoms: _118  and  _120
REMARK   52  A    between atoms: _120  and  _121
REMARK   53  A    between atoms: _123  and  _125
REMARK   54  A    between atoms: _125  and  _126
REMARK   55  A    between atoms: _128  and  _130
REMARK   56  A    between atoms: _130  and  _131
REMARK   57  A    between atoms: _130  and  _133
REMARK   58  A    between atoms: _133  and  _134
REMARK   59  A    between atoms: _137  and  _139
REMARK   60  A    between atoms: _139  and  _140
REMARK   61  A    between atoms: _142  and  _144
REMARK   62  A    between atoms: _144  and  _145
REMARK   63  A    between atoms: _147  and  _149
REMARK   64  A    between atoms: _149  and  _150
REMARK   65  A    between atoms: _149  and  _152
REMARK   66  A    between atoms: _152  and  _153
REMARK   67  A    between atoms: _156  and  _158
REMARK   68  A    between atoms: _158  and  _159
REMARK   69  A    between atoms: _158  and  _161
REMARK   70  A    between atoms: _161  and  _162
REMARK   71  A    between atoms: _166  and  _167
REMARK   72  A    between atoms: _172  and  _174
REMARK   73  A    between atoms: _174  and  _175
REMARK   74  A    between atoms: _174  and  _177
REMARK   75  A    between atoms: _177  and  _178
REMARK   76  A    between atoms: _182  and  _183
REMARK   77  A    between atoms: _188  and  _190
REMARK   78  A    between atoms: _190  and  _191
REMARK   79  A    between atoms: _190  and  _193
REMARK   80  A    between atoms: _196  and  _198
REMARK   81  A    between atoms: _198  and  _199
REMARK   82  A    between atoms: _198  and  _201
REMARK   83  A    between atoms: _201  and  _202
REMARK   84  A    between atoms: _207  and  _209
REMARK   85  A    between atoms: _209  and  _210
REMARK   86  A    between atoms: _209  and  _212
REMARK   87  A    between atoms: _212  and  _213
REMARK   88  A    between atoms: _216  and  _218
REMARK   89  A    between atoms: _218  and  _219
REMARK   90  A    between atoms: _218  and  _221
REMARK   91  A    between atoms: _221  and  _222
REMARK   92  A    between atoms: _225  and  _227
REMARK   93  A    between atoms: _227  and  _228
REMARK   94  A    between atoms: _230  and  _232
REMARK   95  A    between atoms: _232  and  _233
REMARK   96  A    between atoms: _232  and  _235
REMARK   97  A    between atoms: _235  and  _236
REMARK   98  A    between atoms: _236  and  _237
REMARK   99  A    between atoms: _237  and  _238
REMARK  100  A    between atoms: _247  and  _249
REMARK  101  A    between atoms: _249  and  _250
REMARK  102  A    between atoms: _249  and  _252
REMARK  103  A    between atoms: _252  and  _253
REMARK  104  A    between atoms: _258  and  _260
REMARK  105  A    between atoms: _260  and  _261
REMARK  106  A    between atoms: _260  and  _263
REMARK  107  A    between atoms: _263  and  _264
REMARK  108  A    between atoms: _264  and  _265
REMARK  109  A    between atoms: _265  and  _266
REMARK  110  A    between atoms: _275  and  _277
REMARK  111  A    between atoms: _277  and  _278
REMARK  112  A    between atoms: _277  and  _280
REMARK  113  A    between atoms: _280  and  _281
REMARK  114  A    between atoms: _284  and  _286
REMARK  115  A    between atoms: _286  and  _287
REMARK  116  A    between atoms: _286  and  _289
REMARK  117  A    between atoms: _289  and  _290
REMARK  118  A    between atoms: _293  and  _295
REMARK  119  A    between atoms: _295  and  _296
REMARK  120  A    between atoms: _295  and  _298
REMARK  121  A    between atoms: _298  and  _299
REMARK  122  A    between atoms: _302  and  _304
REMARK  123  A    between atoms: _304  and  _305
REMARK  124  A    between atoms: _304  and  _307
REMARK  125  A    between atoms: _307  and  _308
REMARK  126  A    between atoms: _311  and  _313
REMARK  127  A    between atoms: _313  and  _314
REMARK  128  A    between atoms: _313  and  _316
REMARK  129  A    between atoms: _316  and  _317
REMARK  130  A    between atoms: _320  and  _322
REMARK  131  A    between atoms: _322  and  _323
REMARK  132  A    between atoms: _325  and  _327
REMARK  133  A    between atoms: _327  and  _328
REMARK  134  A    between atoms: _331  and  _333
REMARK  135  A    between atoms: _333  and  _334
REMARK  136  A    between atoms: _333  and  _336
REMARK  137  A    between atoms: _336  and  _337
REMARK  138  A    between atoms: _340  and  _342
REMARK  139  A    between atoms: _342  and  _343
REMARK  140  A    between atoms: _342  and  _345
REMARK  141  A    between atoms: _345  and  _346
REMARK  142  A    between atoms: _349  and  _351
REMARK  143  A    between atoms: _351  and  _352
REMARK  144  A    between atoms: _351  and  _354
REMARK  145  A    between atoms: _354  and  _355
REMARK  146  A    between atoms: _358  and  _360
REMARK  147  A    between atoms: _360  and  _361
REMARK  148  A    between atoms: _360  and  _363
REMARK  149  A    between atoms: _366  and  _368
REMARK  150  A    between atoms: _368  and  _369
REMARK  151  A    between atoms: _368  and  _371
REMARK  152  A    between atoms: _371  and  _372
REMARK  153  A    between atoms: _372  and  _373
REMARK  154  A    between atoms: _375  and  _377
REMARK  155  A    between atoms: _377  and  _378
REMARK  156  A    between atoms: _377  and  _380
REMARK  157  A    between atoms: _380  and  _381
REMARK  158  A    between atoms: _384  and  _386
REMARK  159  A    between atoms: _386  and  _387
REMARK  160  A    between atoms: _389  and  _391
REMARK  161  A    between atoms: _391  and  _392
REMARK  162  A    between atoms: _394  and  _396
REMARK  163  A    between atoms: _396  and  _397
REMARK  164  A    between atoms: _396  and  _399
REMARK  165  A    between atoms: _399  and  _400
REMARK  166  A    between atoms: _403  and  _405
REMARK  167  A    between atoms: _405  and  _406
REMARK  168  A    between atoms: _408  and  _410
REMARK  169  A    between atoms: _410  and  _411
REMARK  170  A    between atoms: _413  and  _415
REMARK  171  A    between atoms: _415  and  _416
REMARK  172  A    between atoms: _415  and  _418
REMARK  173  A    between atoms: _418  and  _419
REMARK  174  A    between atoms: _425  and  _427
REMARK  175  A    between atoms: _427  and  _428
REMARK  176  A    between atoms: _427  and  _430
REMARK  177  A    between atoms: _430  and  _431
REMARK  178  A    between atoms: _434  and  _436
REMARK  179  A    between atoms: _436  and  _437
REMARK  180  A    between atoms: _436  and  _439
REMARK  181  A    between atoms: _442  and  _444
REMARK  182  A    between atoms: _444  and  _445
REMARK  183  A    between atoms: _444  and  _447
REMARK  184  A    between atoms: _447  and  _448
REMARK  185  A    between atoms: _451  and  _453
REMARK  186  A    between atoms: _453  and  _454
REMARK  187  A    between atoms: _453  and  _456
REMARK  188  A    between atoms: _456  and  _457
REMARK  189  A    between atoms: _461  and  _462
REMARK  190  A    between atoms: _467  and  _469
REMARK  191  A    between atoms: _469  and  _470
REMARK  192  A    between atoms: _469  and  _472
REMARK  193  A    between atoms: _475  and  _477
REMARK  194  A    between atoms: _477  and  _478
REMARK  195  A    between atoms: _477  and  _480
REMARK  196  A    between atoms: _480  and  _481
REMARK  197  A    between atoms: _486  and  _488
REMARK  198  A    between atoms: _488  and  _489
REMARK  199  A    between atoms: _488  and  _491
REMARK  200  A    between atoms: _491  and  _492
REMARK  201  A    between atoms: _495  and  _497
REMARK  202  A    between atoms: _497  and  _498
REMARK  203  A    between atoms: _497  and  _500
REMARK  204  A    between atoms: _500  and  _501
REMARK  205  A    between atoms: _504  and  _506
REMARK  206  A    between atoms: _506  and  _507
REMARK  207  A    between atoms: _509  and  _511
REMARK  208  A    between atoms: _511  and  _512
REMARK  209  A    between atoms: _511  and  _514
REMARK  210  A    between atoms: _514  and  _515
REMARK  211  A    between atoms: _515  and  _516
REMARK  212  A    between atoms: _516  and  _517
REMARK                            x       y       z     vdW  Elec       q    Type
REMARK                         _______ _______ _______ _____ _____    ______ ____
ROOT
ATOM      1  NE  ARG A   1       3.985  -7.771  23.151  0.00  0.00    -0.265 N 
ATOM      2  HE  ARG A   1       4.914  -7.335  22.983  0.00  0.00    +0.259 HD
ATOM      3  CZ  ARG A   1       3.775  -9.028  22.736  0.00  0.00    +0.342 C 
ATOM      4  NH2 ARG A   1       2.596  -9.627  22.913  0.00  0.00    -0.292 N 
ATOM      5 HH21 ARG A   1       1.819  -9.118  23.381  0.00  0.00    +0.255 HD
ATOM      6 HH22 ARG A   1       2.454 -10.603  22.583  0.00  0.00    +0.255 HD
ATOM      7  NH1 ARG A   1       4.790  -9.754  22.262  0.00  0.00    -0.292 N 
ATOM      8 HH11 ARG A   1       5.745  -9.344  22.214  0.00  0.00    +0.255 HD
ATOM      9 HH12 ARG A   1       4.626 -10.729  21.940  0.00  0.00    +0.255 HD
ENDROOT
BRANCH   1  10
ATOM     10  CD  ARG A   1       2.948  -6.990  23.835  0.00  0.00    +0.174 C 
BRANCH  10  11
ATOM     11  CG  ARG A   1       3.616  -6.377  25.054  0.00  0.00    +0.045 C 
BRANCH  11  12
ATOM     12  CB  ARG A   1       2.649  -5.478  25.803  0.00  0.00    +0.029 C 
BRANCH  12  13
ATOM     13  CA  ARG A   1       3.337  -4.516  26.766  0.00  0.00    +0.133 C 
BRANCH  13  14
ATOM     14  N   ARG A   1       3.928  -5.244  27.883  0.00  0.00    -0.239 NA
ATOM     15  H   ARG A   1       3.897  -6.283  27.893  0.00  0.00    +0.142 HD
ENDBRANCH  13  14
BRANCH  13  16
ATOM     16  C   ARG A   1       2.269  -3.561  27.320  0.00  0.00    +0.224 C 
ATOM     17  O   ARG A   1       1.467  -3.978  28.169  0.00  0.00    -0.287 OA
ENDBRANCH  13  16
ENDBRANCH  12  13
ENDBRANCH  11  12
ENDBRANCH  10  11
ENDBRANCH   1  10
TORSDOF 6
REMARK  Name = ../refined-set-2016/1ohr/1ohr_pocket.pdb
REMARK  212 active torsions:
REMARK  status: ('A' for Active; 'I' for Inactive)
REMARK    1  A    between atoms: _1  and  _3
REMARK    2  A    between atoms: _3  and  _4
REMARK    3  A    between atoms: _3  and  _6
REMARK    4  A    between atoms: _6  and  _7
REMARK    5  A    between atoms: _7  and  _8
REMARK    6  A    between atoms: _8  and  _9
REMARK    7  A    between atoms: _18  and  _20
REMARK    8  A    between atoms: _20  and  _21
REMARK    9  A    between atoms: _20  and  _23
REMARK   10  A    between atoms: _23  and  _24
REMARK   11  A    between atoms: _27  and  _29
REMARK   12  A    between atoms: _29  and  _30
REMARK   13  A    between atoms: _29  and  _32
REMARK   14  A    between atoms: _32  and  _33
REMARK   15  A    between atoms: _36  and  _38
REMARK   16  A    between atoms: _38  and  _39
REMARK   17  A    between atoms: _38  and  _41
REMARK   18  A    between atoms: _41  and  _42
REMARK   19  A    between atoms: _45  and  _47
REMARK   20  A    between atoms: _47  and  _48
REMARK   21  A    between atoms: _47  and  _50
REMARK   22  A    between atoms: _50  and  _51
REMARK   23  A    between atoms: _54  and  _56
REMARK   24  A    between atoms: _56  and  _57
REMARK   25  A    between atoms: _59  and  _61
REMARK   26  A    between atoms: _61  and  _62
REMARK   27  A    between atoms: _65  and  _67
REMARK   28  A    between atoms: _67  and  _68
REMARK   29  A    between atoms: _67  and  _70
REMARK   30  A    between atoms: _70  and  _71
REMARK   31  A    between atoms: _74  and  _76
REMARK   32  A    between atoms: _76  and  _77
REMARK   33  A    between atoms: _76  and  _79
REMARK   34  A    between atoms: _79  and  _80
REMARK   35  A    between atoms: _83  and  _85
REMARK   36  A    between atoms: _85  and  _86
REMARK   37  A    between atoms: _85  and  _88
REMARK   38  A    between atoms: _88  and  _89
REMARK   39  A    between atoms: _92  and  _94
REMARK   40  A    between atoms: _94  and  _95
REMARK   41  A    between atoms: _94  and  _97
REMARK   42  A    between atoms: _100  and  _102
REMARK   43  A    between atoms: _102  and  _103
REMARK   44  A    between atoms: _102  and  _105
REMARK   45  A    between atoms: _105  and  _106
REMARK   46  A    between atoms: _106  and  _107
REMARK   47  A    between atoms: _109  and  _111
REMARK   48  A    between atoms: _111  and  _112
REMARK   49  A    between atoms: _111  and  _114
REMARK   50  A    between atoms: _114  and  _115
REMARK   51  A    between atoms: _118  and  _120
REMARK   52  A    between atoms: _120  and  _121
REMARK   53  A    between atoms: _123  and  _125
REMARK   54  A    between atoms: _125  and  _126
REMARK   55  A    between atoms: _128  and  _130
REMARK   56  A    between atoms: _130  and  _131
REMARK   57  A    between atoms: _130  and  _133
REMARK   58  A    between atoms: _133  and  _134
REMARK   59  A    between atoms: _137  and  _139
REMARK   60  A    between atoms: _139  and  _140
REMARK   61  A    between atoms: _142  and  _144
REMARK   62  A    between atoms: _144  and  _145
REMARK   63  A    between atoms: _147  and  _149
REMARK   64  A    between atoms: _149  and  _150
REMARK   65  A    between atoms: _149  and  _152
REMARK   66  A    between atoms: _152  and  _153
REMARK   67  A    between atoms: _156  and  _158
REMARK   68  A    between atoms: _158  and  _159
REMARK   69  A    between atoms: _158  and  _161
REMARK   70  A    between atoms: _161  and  _162
REMARK   71  A    between atoms: _166  and  _167
REMARK   72  A    between atoms: _172  and  _174
REMARK   73  A    between atoms: _174  and  _175
REMARK   74  A    between atoms: _174  and  _177
REMARK   75  A    between atoms: _177  and  _178
REMARK   76  A    between atoms: _182  and  _183
REMARK   77  A    between atoms: _188  and  _190
REMARK   78  A    between atoms: _190  and  _191
REMARK   79  A    between atoms: _190  and  _193
REMARK   80  A    between atoms: _196  and  _198
REMARK   81  A    between atoms: _198  and  _199
REMARK   82  A    between atoms: _198  and  _201
REMARK   83  A    between atoms: _201  and  _202
REMARK   84  A    between atoms: _207  and  _209
REMARK   85  A    between atoms: _209  and  _210
REMARK   86  A    between atoms: _209  and  _212
REMARK   87  A    between atoms: _212  and  _213
REMARK   88  A    between atoms: _216  and  _218
REMARK   89  A    between atoms: _218  and  _219
REMARK   90  A    between atoms: _218  and  _221
REMARK   91  A    between atoms: _221  and  _222
REMARK   92  A    between atoms: _225  and  _227
REMARK   93  A    between atoms: _227  and  _228
REMARK   94  A    between atoms: _230  and  _232
REMARK   95  A    between atoms: _232  and  _233
REMARK   96  A    between atoms: _232  and  _235
REMARK   97  A    between atoms: _235  and  _236
REMARK   98  A    between atoms: _236  and  _237
REMARK   99  A    between atoms: _237  and  _238
REMARK  100  A    between atoms: _247  and  _249
REMARK  101  A    between atoms: _249  and  _250
REMARK  102  A    between atoms: _249  and  _252
REMARK  103  A    between atoms: _252  and  _253
REMARK  104  A    between atoms: _258  and  _260
REMARK  105  A    between atoms: _260  and  _261
REMARK  106  A    between atoms: _260  and  _263
REMARK  107  A    between atoms: _263  and  _264
REMARK  108  A    between atoms: _264  and  _265
REMARK  109  A    between atoms: _265  and  _266
REMARK  110  A    between atoms: _275  and  _277
REMARK  111  A    between atoms: _277  and  _278
REMARK  112  A    between atoms: _277  and  _280
REMARK  113  A    between atoms: _280  and  _281
REMARK  114  A    between atoms: _284  and  _286
REMARK  115  A    between atoms: _286  and  _287
REMARK  116  A    between atoms: _286  and  _289
REMARK  117  A    between atoms: _289  and  _290
REMARK  118  A    between atoms: _293  and  _295
REMARK  119  A    between atoms: _295  and  _296
REMARK  120  A    between atoms: _295  and  _298
REMARK  121  A    between atoms: _298  and  _299
REMARK  122  A    between atoms: _302  and  _304
REMARK  123  A    between atoms: _304  and  _305
REMARK  124  A    between atoms: _304  and  _307
REMARK  125  A    between atoms: _307  and  _308
REMARK  126  A    between atoms: _311  and  _313
REMARK  127  A    between atoms: _313  and  _314
REMARK  128  A    between atoms: _313  and  _316
REMARK  129  A    between atoms: _316  and  _317
REMARK  130  A    between atoms: _320  and  _322
REMARK  131  A    between atoms: _322  and  _323
REMARK  132  A    between atoms: _325  and  _327
REMARK  133  A    between atoms: _327  and  _328
REMARK  134  A    between atoms: _331  and  _333
REMARK  135  A    between atoms: _333  and  _334
REMARK  136  A    between atoms: _333  and  _336
REMARK  137  A    between atoms: _336  and  _337
REMARK  138  A    between atoms: _340  and  _342
REMARK  139  A    between atoms: _342  and  _343
REMARK  140  A    between atoms: _342  and  _345
REMARK  141  A    between atoms: _345  and  _346
REMARK  142  A    between atoms: _349  and  _351
REMARK  143  A    between atoms: _351  and  _352
REMARK  144  A    between atoms: _351  and  _354
REMARK  145  A    between atoms: _354  and  _355
REMARK  146  A    between atoms: _358  and  _360
REMARK  147  A    between atoms: _360  and  _361
REMARK  148  A    between atoms: _360  and  _363
REMARK  149  A    between atoms: _366  and  _368
REMARK  150  A    between atoms: _368  and  _369
REMARK  151  A    between atoms: _368  and  _371
REMARK  152  A    between atoms: _371  and  _372
REMARK  153  A    between atoms: _372  and  _373
REMARK  154  A    between atoms: _375  and  _377
REMARK  155  A    between atoms: _377  and  _378
REMARK  156  A    between atoms: _377  and  _380
REMARK  157  A    between atoms: _380  and  _381
REMARK  158  A    between atoms: _384  and  _386
REMARK  159  A    between atoms: _386  and  _387
REMARK  160  A    between atoms: _389  and  _391
REMARK  161  A    between atoms: _391  and  _392
REMARK  162  A    between atoms: _394  and  _396
REMARK  163  A    between atoms: _396  and  _397
REMARK  164  A    between atoms: _396  and  _399
REMARK  165  A    between atoms: _399  and  _400
REMARK  166  A    between atoms: _403  and  _405
REMARK  167  A    between atoms: _405  and  _406
REMARK  168  A    between atoms: _408  and  _410
REMARK  169  A    between atoms: _410  and  _411
REMARK  170  A    between atoms: _413  and  _415
REMARK  171  A    between atoms: _415  and  _416
REMARK  172  A    between atoms: _415  and  _418
REMARK  173  A    between atoms: _418  and  _419
REMARK  174  A    between atoms: _425  and  _427
REMARK  175  A    between atoms: _427  and  _428
REMARK  176  A    between atoms: _427  and  _430
REMARK  177  A    between atoms: _430  and  _431
REMARK  178  A    between atoms: _434  and  _436
REMARK  179  A    between atoms: _436  and  _437
REMARK  180  A    between atoms: _436  and  _439
REMARK  181  A    between atoms: _442  and  _444
REMARK  182  A    between atoms: _444  and  _445
REMARK  183  A    between atoms: _444  and  _447
REMARK  184  A    between atoms: _447  and  _448
REMARK  185  A    between atoms: _451  and  _453
REMARK  186  A    between atoms: _453  and  _454
REMARK  187  A    between atoms: _453  and  _456
REMARK  188  A    between atoms: _456  and  _457
REMARK  189  A    between atoms: _461  and  _462
REMARK  190  A    between atoms: _467  and  _469
REMARK  191  A    between atoms: _469  and  _470
REMARK  192  A    between atoms: _469  and  _472
REMARK  193  A    between atoms: _475  and  _477
REMARK  194  A    between atoms: _477  and  _478
REMARK  195  A    between atoms: _477  and  _480
REMARK  196  A    between atoms: _480  and  _481
REMARK  197  A    between atoms: _486  and  _488
REMARK  198  A    between atoms: _488  and  _489
REMARK  199  A    between atoms: _488  and  _491
REMARK  200  A    between atoms: _491  and  _492
REMARK  201  A    between atoms: _495  and  _497
REMARK  202  A    between atoms: _497  and  _498
REMARK  203  A    between atoms: _497  and  _500
REMARK  204  A    between atoms: _500  and  _501
REMARK  205  A    between atoms: _504  and  _506
REMARK  206  A    between atoms: _506  and  _507
REMARK  207  A    between atoms: _509  and  _511
REMARK  208  A    between atoms: _511  and  _512
REMARK  209  A    between atoms: _511  and  _514
REMARK  210  A    between atoms: _514  and  _515
REMARK  211  A    between atoms: _515  and  _516
REMARK  212  A    between atoms: _516  and  _517
REMARK                            x       y       z     vdW  Elec       q    Type
REMARK                         _______ _______ _______ _____ _____    ______ ____
ROOT
ATOM      1  C   GLY A   5       4.458   3.944  15.797  0.00  0.00    +0.243 C 
ATOM      2  N   ALA A   6       3.177   3.803  16.094  0.00  0.00    -0.297 N 
ATOM      3  H   ALA A   6       2.874   3.768  17.088  0.00  0.00    +0.150 HD
ATOM      4  O   GLY A   5       4.811   3.849  14.609  0.00  0.00    -0.273 OA
ENDROOT
BRANCH   2   5
ATOM      5  CA  ALA A   6       2.188   3.697  15.026  0.00  0.00    +0.149 C 
ATOM      6  CB  ALA A   6       1.025   2.758  15.363  0.00  0.00    +0.031 C 
BRANCH   5   7
ATOM      7  C   ALA A   6       1.562   5.072  14.806  0.00  0.00    +0.241 C 
ATOM      8  O   ALA A   6       1.156   5.789  15.737  0.00  0.00    -0.273 OA
ATOM      9  N   ASP A   7       1.497   5.481  13.534  0.00  0.00    -0.297 N 
ATOM     10  H   ASP A   7       1.900   4.887  12.781  0.00  0.00    +0.150 HD
BRANCH   9  11
ATOM     11  CA  ASP A   7       0.857   6.772  13.186  0.00  0.00    +0.160 C 
BRANCH  11  12
ATOM     12  C   ASP A   7      -0.656   6.610  13.239  0.00  0.00    +0.241 C 
ATOM     13  O   ASP A   7      -1.376   7.546  13.588  0.00  0.00    -0.273 OA
ATOM     14  N   ASP A   8      -1.126   5.410  12.877  0.00  0.00    -0.297 N 
ATOM     15  H   ASP A   8      -0.442   4.673  12.611  0.00  0.00    +0.150 HD
BRANCH  14  16
ATOM     16  CA  ASP A   8      -2.563   5.078  12.835  0.00  0.00    +0.160 C 
BRANCH  16  17
ATOM     17  C   ASP A   8      -3.011   4.060  13.873  0.00  0.00    +0.241 C 
ATOM     18  O   ASP A   8      -2.185   3.445  14.548  0.00  0.00    -0.273 OA
ATOM     19  N   THR A   9      -4.325   3.941  14.021  0.00  0.00    -0.295 N 
ATOM     20  H   THR A   9      -4.925   4.577  13.458  0.00  0.00    +0.150 HD
BRANCH  19  21
ATOM     21  CA  THR A   9      -5.002   2.998  14.903  0.00  0.00    +0.176 C 
BRANCH  21  22
ATOM     22  C   THR A   9      -5.553   1.899  13.998  0.00  0.00    +0.243 C 
ATOM     23  N   VAL A  10      -5.111   0.694  14.291  0.00  0.00    -0.298 N 
ATOM     24  H   VAL A  10      -4.474   0.573  15.104  0.00  0.00    +0.150 HD
ATOM     25  O   THR A   9      -6.386   2.099  13.096  0.00  0.00    -0.273 OA
BRANCH  23  26
ATOM     26  CA  VAL A  10      -5.487  -0.470  13.511  0.00  0.00    +0.137 C 
BRANCH  26  27
ATOM     27  CB  VAL A  10      -4.244  -1.014  12.746  0.00  0.00    +0.026 C 
ATOM     28  CG2 VAL A  10      -3.503   0.144  12.080  0.00  0.00    +0.002 C 
ATOM     29  CG1 VAL A  10      -4.686  -2.063  11.710  0.00  0.00    +0.002 C 
ENDBRANCH  26  27
BRANCH  26  30
ATOM     30  C   VAL A  10      -6.037  -1.559  14.399  0.00  0.00    +0.227 C 
ATOM     31  O   VAL A  10      -5.392  -1.992  15.343  0.00  0.00    -0.286 OA
ENDBRANCH  26  30
ENDBRANCH  23  26
ENDBRANCH  21  22
BRANCH  21  32
ATOM     32  CB  THR A   9      -6.137   3.727  15.653  0.00  0.00    +0.137 C 
ATOM     33  CG2 THR A   9      -7.050   2.779  16.415  0.00  0.00    +0.034 C 
BRANCH  32  34
ATOM     34  OG1 THR A   9      -5.510   4.655  16.564  0.00  0.00    -0.382 OA
ATOM     35  HG1 THR A   9      -4.959   5.298  16.051  0.00  0.00    +0.210 HD
ENDBRANCH  32  34
ENDBRANCH  21  32
ENDBRANCH  19  21
ENDBRANCH  16  17
BRANCH  16  36
ATOM     36  CB  ASP A   8      -2.887   4.531  11.441  0.00  0.00    +0.143 C 
BRANCH  36  37
ATOM     37  CG  ASP A   8      -2.199   5.363  10.362  0.00  0.00    +0.367 C 
ATOM     38  OD2 ASP A   8      -2.633   6.473  10.129  0.00  0.00    -0.246 OA
ATOM     39  OD1 ASP A   8      -1.216   4.915   9.780  0.00  0.00    -0.246 OA
ENDBRANCH  36  37
ENDBRANCH  16  36
ENDBRANCH  14  16
ENDBRANCH  11  12
BRANCH  11  40
ATOM     40  CB  ASP A   7       1.154   7.266  11.754  0.00  0.00    +0.143 C 
BRANCH  40  41
ATOM     41  CG  ASP A   7       2.632   7.434  11.443  0.00  0.00    +0.367 C 
ATOM     42  OD2 ASP A   7       3.438   7.753  12.315  0.00  0.00    -0.246 OA
ATOM     43  OD1 ASP A   7       2.963   7.264  10.283  0.00  0.00    -0.246 OA
ENDBRANCH  40  41
ENDBRANCH  11  40
ENDBRANCH   9  11
ENDBRANCH   5   7
ENDBRANCH   2   5
BRANCH   1  44
ATOM     44  CA  GLY A   5       5.498   4.092  16.929  0.00  0.00    +0.176 C 
BRANCH  44  46
ATOM     45  C   THR A   4       4.421   5.540  18.663  0.00  0.00    +0.243 C 
ATOM     46  N   GLY A   5       4.826   4.339  18.223  0.00  0.00    -0.295 N 
ATOM     47  H   GLY A   5       4.654   3.519  18.839  0.00  0.00    +0.150 HD
ATOM     48  O   THR A   4       4.724   6.566  18.083  0.00  0.00    -0.273 OA
BRANCH  45  49
ATOM     49  CA  THR A   4       3.717   5.621  19.999  0.00  0.00    +0.176 C 
BRANCH  49  51
ATOM     50  C   ASP A   3       2.244   3.668  19.864  0.00  0.00    +0.241 C 
ATOM     51  N   THR A   4       3.229   4.312  20.480  0.00  0.00    -0.295 N 
ATOM     52  H   THR A   4       3.667   3.885  21.321  0.00  0.00    +0.150 HD
ATOM     53  O   ASP A   3       1.729   4.126  18.852  0.00  0.00    -0.273 OA
BRANCH  50  54
ATOM     54  CA  ASP A   3       1.768   2.342  20.419  0.00  0.00    +0.160 C 
BRANCH  54  57
ATOM     55  C   LEU A   2       0.551   1.918  22.414  0.00  0.00    +0.241 C 
ATOM     56  O   LEU A   2       1.636   1.603  22.918  0.00  0.00    -0.273 OA
ATOM     57  N   ASP A   3       0.558   2.420  21.206  0.00  0.00    -0.297 N 
ATOM     58  H   ASP A   3      -0.296   2.869  20.817  0.00  0.00    +0.150 HD
BRANCH  55  59
ATOM     59  CA  LEU A   2      -0.769   1.886  23.210  0.00  0.00    +0.149 C 
BRANCH  59  61
ATOM     60  C   LEU A   1      -1.504  -0.300  22.414  0.00  0.00    +0.238 C 
ATOM     61  N   LEU A   2      -1.032   0.458  23.417  0.00  0.00    -0.297 N 
ATOM     62  H   LEU A   2      -0.852   0.029  24.347  0.00  0.00    +0.150 HD
ATOM     63  O   LEU A   1      -1.824   0.186  21.319  0.00  0.00    -0.274 OA
BRANCH  60  64
ATOM     64  CA  LEU A   1      -1.691  -1.794  22.634  0.00  0.00    +0.145 C 
BRANCH  64  65
ATOM     65  N   LEU A   1      -3.037  -2.242  22.274  0.00  0.00    -0.238 NA
ATOM     66  H   LEU A   1      -3.207  -2.543  21.293  0.00  0.00    +0.142 HD
ENDBRANCH  64  65
BRANCH  64  67
ATOM     67  CB  LEU A   1      -0.755  -2.657  21.752  0.00  0.00    +0.026 C 
BRANCH  67  68
ATOM     68  CG  LEU A   1       0.764  -2.443  21.843  0.00  0.00    +0.002 C 
ATOM     69  CD2 LEU A   1       1.254  -3.015  23.175  0.00  0.00    +0.000 C 
ATOM     70  CD1 LEU A   1       1.477  -3.121  20.643  0.00  0.00    +0.000 C 
ENDBRANCH  67  68
ENDBRANCH  64  67
ENDBRANCH  60  64
ENDBRANCH  59  61
BRANCH  59  71
ATOM     71  CB  LEU A   2      -0.640   2.554  24.576  0.00  0.00    +0.029 C 
BRANCH  71  72
ATOM     72  CG  LEU A   2      -1.949   2.519  25.411  0.00  0.00    +0.002 C 
ATOM     73  CD2 LEU A   2      -1.724   3.412  26.635  0.00  0.00    +0.000 C 
ATOM     74  CD1 LEU A   2      -3.159   3.028  24.609  0.00  0.00    +0.000 C 
ENDBRANCH  71  72
ENDBRANCH  59  71
ENDBRANCH  55  59
ENDBRANCH  54  57
BRANCH  54  75
ATOM     75  CB  ASP A   3       1.350   1.286  19.392  0.00  0.00    +0.143 C 
BRANCH  75  76
ATOM     76  CG  ASP A   3       2.445   0.966  18.381  0.00  0.00    +0.367 C 
ATOM     77  OD2 ASP A   3       3.532   1.521  18.438  0.00  0.00    -0.246 OA
ATOM     78  OD1 ASP A   3       2.191   0.118  17.541  0.00  0.00    -0.246 OA
ENDBRANCH  75  76
ENDBRANCH  54  75
ENDBRANCH  50  54
ENDBRANCH  49  51
BRANCH  49  79
ATOM     79  CB  THR A   4       4.661   6.179  21.014  0.00  0.00    +0.137 C 
ATOM     80  CG2 THR A   4       3.901   6.348  22.377  0.00  0.00    +0.034 C 
BRANCH  79  81
ATOM     81  OG1 THR A   4       5.780   5.280  21.153  0.00  0.00    -0.382 OA
ATOM     82  HG1 THR A   4       6.240   5.190  20.281  0.00  0.00    +0.210 HD
ENDBRANCH  79  81
ENDBRANCH  49  79
ENDBRANCH  45  49
ENDBRANCH  44  46
ENDBRANCH   1  44
TORSDOF 35
REMARK  Name = ../refined-set-2016/1ohr/1ohr_pocket.pdb
REMARK  212 active torsions:
REMARK  status: ('A' for Active; 'I' for Inactive)
REMARK    1  A    between atoms: _1  and  _3
REMARK    2  A    between atoms: _3  and  _4
REMARK    3  A    between atoms: _3  and  _6
REMARK    4  A    between atoms: _6  and  _7
REMARK    5  A    between atoms: _7  and  _8
REMARK    6  A    between atoms: _8  and  _9
REMARK    7  A    between atoms: _18  and  _20
REMARK    8  A    between atoms: _20  and  _21
REMARK    9  A    between atoms: _20  and  _23
REMARK   10  A    between atoms: _23  and  _24
REMARK   11  A    between atoms: _27  and  _29
REMARK   12  A    between atoms: _29  and  _30
REMARK   13  A    between atoms: _29  and  _32
REMARK   14  A    between atoms: _32  and  _33
REMARK   15  A    between atoms: _36  and  _38
REMARK   16  A    between atoms: _38  and  _39
REMARK   17  A    between atoms: _38  and  _41
REMARK   18  A    between atoms: _41  and  _42
REMARK   19  A    between atoms: _45  and  _47
REMARK   20  A    between atoms: _47  and  _48
REMARK   21  A    between atoms: _47  and  _50
REMARK   22  A    between atoms: _50  and  _51
REMARK   23  A    between atoms: _54  and  _56
REMARK   24  A    between atoms: _56  and  _57
REMARK   25  A    between atoms: _59  and  _61
REMARK   26  A    between atoms: _61  and  _62
REMARK   27  A    between atoms: _65  and  _67
REMARK   28  A    between atoms: _67  and  _68
REMARK   29  A    between atoms: _67  and  _70
REMARK   30  A    between atoms: _70  and  _71
REMARK   31  A    between atoms: _74  and  _76
REMARK   32  A    between atoms: _76  and  _77
REMARK   33  A    between atoms: _76  and  _79
REMARK   34  A    between atoms: _79  and  _80
REMARK   35  A    between atoms: _83  and  _85
REMARK   36  A    between atoms: _85  and  _86
REMARK   37  A    between atoms: _85  and  _88
REMARK   38  A    between atoms: _88  and  _89
REMARK   39  A    between atoms: _92  and  _94
REMARK   40  A    between atoms: _94  and  _95
REMARK   41  A    between atoms: _94  and  _97
REMARK   42  A    between atoms: _100  and  _102
REMARK   43  A    between atoms: _102  and  _103
REMARK   44  A    between atoms: _102  and  _105
REMARK   45  A    between atoms: _105  and  _106
REMARK   46  A    between atoms: _106  and  _107
REMARK   47  A    between atoms: _109  and  _111
REMARK   48  A    between atoms: _111  and  _112
REMARK   49  A    between atoms: _111  and  _114
REMARK   50  A    between atoms: _114  and  _115
REMARK   51  A    between atoms: _118  and  _120
REMARK   52  A    between atoms: _120  and  _121
REMARK   53  A    between atoms: _123  and  _125
REMARK   54  A    between atoms: _125  and  _126
REMARK   55  A    between atoms: _128  and  _130
REMARK   56  A    between atoms: _130  and  _131
REMARK   57  A    between atoms: _130  and  _133
REMARK   58  A    between atoms: _133  and  _134
REMARK   59  A    between atoms: _137  and  _139
REMARK   60  A    between atoms: _139  and  _140
REMARK   61  A    between atoms: _142  and  _144
REMARK   62  A    between atoms: _144  and  _145
REMARK   63  A    between atoms: _147  and  _149
REMARK   64  A    between atoms: _149  and  _150
REMARK   65  A    between atoms: _149  and  _152
REMARK   66  A    between atoms: _152  and  _153
REMARK   67  A    between atoms: _156  and  _158
REMARK   68  A    between atoms: _158  and  _159
REMARK   69  A    between atoms: _158  and  _161
REMARK   70  A    between atoms: _161  and  _162
REMARK   71  A    between atoms: _166  and  _167
REMARK   72  A    between atoms: _172  and  _174
REMARK   73  A    between atoms: _174  and  _175
REMARK   74  A    between atoms: _174  and  _177
REMARK   75  A    between atoms: _177  and  _178
REMARK   76  A    between atoms: _182  and  _183
REMARK   77  A    between atoms: _188  and  _190
REMARK   78  A    between atoms: _190  and  _191
REMARK   79  A    between atoms: _190  and  _193
REMARK   80  A    between atoms: _196  and  _198
REMARK   81  A    between atoms: _198  and  _199
REMARK   82  A    between atoms: _198  and  _201
REMARK   83  A    between atoms: _201  and  _202
REMARK   84  A    between atoms: _207  and  _209
REMARK   85  A    between atoms: _209  and  _210
REMARK   86  A    between atoms: _209  and  _212
REMARK   87  A    between atoms: _212  and  _213
REMARK   88  A    between atoms: _216  and  _218
REMARK   89  A    between atoms: _218  and  _219
REMARK   90  A    between atoms: _218  and  _221
REMARK   91  A    between atoms: _221  and  _222
REMARK   92  A    between atoms: _225  and  _227
REMARK   93  A    between atoms: _227  and  _228
REMARK   94  A    between atoms: _230  and  _232
REMARK   95  A    between atoms: _232  and  _233
REMARK   96  A    between atoms: _232  and  _235
REMARK   97  A    between atoms: _235  and  _236
REMARK   98  A    between atoms: _236  and  _237
REMARK   99  A    between atoms: _237  and  _238
REMARK  100  A    between atoms: _247  and  _249
REMARK  101  A    between atoms: _249  and  _250
REMARK  102  A    between atoms: _249  and  _252
REMARK  103  A    between atoms: _252  and  _253
REMARK  104  A    between atoms: _258  and  _260
REMARK  105  A    between atoms: _260  and  _261
REMARK  106  A    between atoms: _260  and  _263
REMARK  107  A    between atoms: _263  and  _264
REMARK  108  A    between atoms: _264  and  _265
REMARK  109  A    between atoms: _265  and  _266
REMARK  110  A    between atoms: _275  and  _277
REMARK  111  A    between atoms: _277  and  _278
REMARK  112  A    between atoms: _277  and  _280
REMARK  113  A    between atoms: _280  and  _281
REMARK  114  A    between atoms: _284  and  _286
REMARK  115  A    between atoms: _286  and  _287
REMARK  116  A    between atoms: _286  and  _289
REMARK  117  A    between atoms: _289  and  _290
REMARK  118  A    between atoms: _293  and  _295
REMARK  119  A    between atoms: _295  and  _296
REMARK  120  A    between atoms: _295  and  _298
REMARK  121  A    between atoms: _298  and  _299
REMARK  122  A    between atoms: _302  and  _304
REMARK  123  A    between atoms: _304  and  _305
REMARK  124  A    between atoms: _304  and  _307
REMARK  125  A    between atoms: _307  and  _308
REMARK  126  A    between atoms: _311  and  _313
REMARK  127  A    between atoms: _313  and  _314
REMARK  128  A    between atoms: _313  and  _316
REMARK  129  A    between atoms: _316  and  _317
REMARK  130  A    between atoms: _320  and  _322
REMARK  131  A    between atoms: _322  and  _323
REMARK  132  A    between atoms: _325  and  _327
REMARK  133  A    between atoms: _327  and  _328
REMARK  134  A    between atoms: _331  and  _333
REMARK  135  A    between atoms: _333  and  _334
REMARK  136  A    between atoms: _333  and  _336
REMARK  137  A    between atoms: _336  and  _337
REMARK  138  A    between atoms: _340  and  _342
REMARK  139  A    between atoms: _342  and  _343
REMARK  140  A    between atoms: _342  and  _345
REMARK  141  A    between atoms: _345  and  _346
REMARK  142  A    between atoms: _349  and  _351
REMARK  143  A    between atoms: _351  and  _352
REMARK  144  A    between atoms: _351  and  _354
REMARK  145  A    between atoms: _354  and  _355
REMARK  146  A    between atoms: _358  and  _360
REMARK  147  A    between atoms: _360  and  _361
REMARK  148  A    between atoms: _360  and  _363
REMARK  149  A    between atoms: _366  and  _368
REMARK  150  A    between atoms: _368  and  _369
REMARK  151  A    between atoms: _368  and  _371
REMARK  152  A    between atoms: _371  and  _372
REMARK  153  A    between atoms: _372  and  _373
REMARK  154  A    between atoms: _375  and  _377
REMARK  155  A    between atoms: _377  and  _378
REMARK  156  A    between atoms: _377  and  _380
REMARK  157  A    between atoms: _380  and  _381
REMARK  158  A    between atoms: _384  and  _386
REMARK  159  A    between atoms: _386  and  _387
REMARK  160  A    between atoms: _389  and  _391
REMARK  161  A    between atoms: _391  and  _392
REMARK  162  A    between atoms: _394  and  _396
REMARK  163  A    between atoms: _396  and  _397
REMARK  164  A    between atoms: _396  and  _399
REMARK  165  A    between atoms: _399  and  _400
REMARK  166  A    between atoms: _403  and  _405
REMARK  167  A    between atoms: _405  and  _406
REMARK  168  A    between atoms: _408  and  _410
REMARK  169  A    between atoms: _410  and  _411
REMARK  170  A    between atoms: _413  and  _415
REMARK  171  A    between atoms: _415  and  _416
REMARK  172  A    between atoms: _415  and  _418
REMARK  173  A    between atoms: _418  and  _419
REMARK  174  A    between atoms: _425  and  _427
REMARK  175  A    between atoms: _427  and  _428
REMARK  176  A    between atoms: _427  and  _430
REMARK  177  A    between atoms: _430  and  _431
REMARK  178  A    between atoms: _434  and  _436
REMARK  179  A    between atoms: _436  and  _437
REMARK  180  A    between atoms: _436  and  _439
REMARK  181  A    between atoms: _442  and  _444
REMARK  182  A    between atoms: _444  and  _445
REMARK  183  A    between atoms: _444  and  _447
REMARK  184  A    between atoms: _447  and  _448
REMARK  185  A    between atoms: _451  and  _453
REMARK  186  A    between atoms: _453  and  _454
REMARK  187  A    between atoms: _453  and  _456
REMARK  188  A    between atoms: _456  and  _457
REMARK  189  A    between atoms: _461  and  _462
REMARK  190  A    between atoms: _467  and  _469
REMARK  191  A    between atoms: _469  and  _470
REMARK  192  A    between atoms: _469  and  _472
REMARK  193  A    between atoms: _475  and  _477
REMARK  194  A    between atoms: _477  and  _478
REMARK  195  A    between atoms: _477  and  _480
REMARK  196  A    between atoms: _480  and  _481
REMARK  197  A    between atoms: _486  and  _488
REMARK  198  A    between atoms: _488  and  _489
REMARK  199  A    between atoms: _488  and  _491
REMARK  200  A    between atoms: _491  and  _492
REMARK  201  A    between atoms: _495  and  _497
REMARK  202  A    between atoms: _497  and  _498
REMARK  203  A    between atoms: _497  and  _500
REMARK  204  A    between atoms: _500  and  _501
REMARK  205  A    between atoms: _504  and  _506
REMARK  206  A    between atoms: _506  and  _507
REMARK  207  A    between atoms: _509  and  _511
REMARK  208  A    between atoms: _511  and  _512
REMARK  209  A    between atoms: _511  and  _514
REMARK  210  A    between atoms: _514  and  _515
REMARK  211  A    between atoms: _515  and  _516
REMARK  212  A    between atoms: _516  and  _517
REMARK                            x       y       z     vdW  Elec       q    Type
REMARK                         _______ _______ _______ _____ _____    ______ ____
ROOT
ATOM      1  C   GLY A   3       3.410  -0.387   7.333  0.00  0.00    +0.243 C 
ATOM      2  O   GLY A   3       3.178   0.586   8.035  0.00  0.00    -0.273 OA
ATOM      3  N   GLY A   4       4.230  -1.350   7.671  0.00  0.00    -0.295 N 
ATOM      4  H   GLY A   4       4.323  -2.171   7.039  0.00  0.00    +0.150 HD
ENDROOT
BRANCH   3   5
ATOM      5  CA  GLY A   4       5.022  -1.318   8.903  0.00  0.00    +0.176 C 
BRANCH   5   6
ATOM      6  C   GLY A   4       6.156  -2.283   8.619  0.00  0.00    +0.243 C 
ATOM      7  N   ILE A   5       6.868  -2.796   9.623  0.00  0.00    -0.297 N 
ATOM      8  H   ILE A   5       6.679  -2.509  10.605  0.00  0.00    +0.150 HD
ATOM      9  O   GLY A   4       6.448  -2.580   7.448  0.00  0.00    -0.273 OA
BRANCH   7  10
ATOM     10  CA  ILE A   5       7.933  -3.781   9.319  0.00  0.00    +0.149 C 
BRANCH  10  11
ATOM     11  C   ILE A   5       7.235  -4.965   8.609  0.00  0.00    +0.241 C 
ATOM     12  O   ILE A   5       6.061  -5.285   8.876  0.00  0.00    -0.273 OA
ATOM     13  N   GLY A   6       7.903  -5.619   7.690  0.00  0.00    -0.295 N 
ATOM     14  H   GLY A   6       8.868  -5.335   7.425  0.00  0.00    +0.150 HD
BRANCH  13  15
ATOM     15  CA  GLY A   6       7.259  -6.745   7.058  0.00  0.00    +0.176 C 
BRANCH  15  16
ATOM     16  C   GLY A   6       6.492  -6.342   5.861  0.00  0.00    +0.243 C 
ATOM     17  N   GLY A   7       5.953  -5.143   5.750  0.00  0.00    -0.296 N 
ATOM     18  H   GLY A   7       6.034  -4.442   6.514  0.00  0.00    +0.150 HD
ATOM     19  O   GLY A   6       6.346  -7.180   4.990  0.00  0.00    -0.273 OA
BRANCH  17  20
ATOM     20  CA  GLY A   7       5.237  -4.837   4.510  0.00  0.00    +0.163 C 
BRANCH  20  21
ATOM     21  C   GLY A   7       3.913  -4.157   4.739  0.00  0.00    +0.229 C 
ATOM     22  O   GLY A   7       3.666  -3.579   5.811  0.00  0.00    -0.286 OA
ENDBRANCH  20  21
ENDBRANCH  17  20
ENDBRANCH  15  16
ENDBRANCH  13  15
ENDBRANCH  10  11
BRANCH  10  23
ATOM     23  CB  ILE A   5       8.631  -4.269  10.657  0.00  0.00    +0.027 C 
ATOM     24  CG2 ILE A   5       9.295  -5.667  10.447  0.00  0.00    +0.002 C 
BRANCH  23  25
ATOM     25  CG1 ILE A   5       9.627  -3.201  11.140  0.00  0.00    +0.002 C 
ATOM     26  CD1 ILE A   5      10.695  -2.783  10.134  0.00  0.00    +0.000 C 
ENDBRANCH  23  25
ENDBRANCH  10  23
ENDBRANCH   7  10
ENDBRANCH   5   6
ENDBRANCH   3   5
BRANCH   1  27
ATOM     27  CA  GLY A   3       2.705  -0.583   6.027  0.00  0.00    +0.176 C 
BRANCH  27  29
ATOM     28  C   ILE A   2       0.389  -0.227   5.608  0.00  0.00    +0.241 C 
ATOM     29  N   GLY A   3       1.552   0.303   5.919  0.00  0.00    -0.295 N 
ATOM     30  H   GLY A   3       1.647   1.326   6.083  0.00  0.00    +0.150 HD
ATOM     31  O   ILE A   2       0.248  -1.442   5.412  0.00  0.00    -0.273 OA
BRANCH  28  32
ATOM     32  CA  ILE A   2      -0.802   0.690   5.488  0.00  0.00    +0.148 C 
BRANCH  32  34
ATOM     33  C   MET A   1      -2.309   0.795   3.577  0.00  0.00    +0.238 C 
ATOM     34  N   ILE A   2      -1.746   0.059   4.530  0.00  0.00    -0.297 N 
ATOM     35  H   ILE A   2      -1.966  -0.955   4.605  0.00  0.00    +0.150 HD
ATOM     36  O   MET A   1      -2.145   2.012   3.542  0.00  0.00    -0.274 OA
BRANCH  33  37
ATOM     37  CA  MET A   1      -3.215   0.202   2.532  0.00  0.00    +0.146 C 
BRANCH  37  38
ATOM     38  N   MET A   1      -4.372   1.105   2.440  0.00  0.00    -0.238 NA
ATOM     39  H   MET A   1      -4.202   2.119   2.281  0.00  0.00    +0.142 HD
ENDBRANCH  37  38
BRANCH  37  40
ATOM     40  CB  MET A   1      -2.472   0.220   1.224  0.00  0.00    +0.038 C 
BRANCH  40  41
ATOM     41  CG  MET A   1      -1.705  -1.025   0.905  0.00  0.00    +0.060 C 
BRANCH  41  42
ATOM     42  SD  MET A   1      -2.773  -1.830  -0.302  0.00  0.00    -0.139 S 
ATOM     43  CE  MET A   1      -2.618  -3.431   0.482  0.00  0.00    +0.069 C 
ENDBRANCH  41  42
ENDBRANCH  40  41
ENDBRANCH  37  40
ENDBRANCH  33  37
ENDBRANCH  32  34
BRANCH  32  44
ATOM     44  CB  ILE A   2      -1.416   0.896   6.903  0.00  0.00    +0.027 C 
ATOM     45  CG2 ILE A   2      -2.467   2.006   6.754  0.00  0.00    +0.002 C 
BRANCH  44  46
ATOM     46  CG1 ILE A   2      -2.005  -0.406   7.485  0.00  0.00    +0.002 C 
ATOM     47  CD1 ILE A   2      -2.022  -0.342   8.994  0.00  0.00    +0.000 C 
ENDBRANCH  44  46
ENDBRANCH  32  44
ENDBRANCH  28  32
ENDBRANCH  27  29
ENDBRANCH   1  27
TORSDOF 21
REMARK  Name = ../refined-set-2016/1ohr/1ohr_pocket.pdb
REMARK  212 active torsions:
REMARK  status: ('A' for Active; 'I' for Inactive)
REMARK    1  A    between atoms: _1  and  _3
REMARK    2  A    between atoms: _3  and  _4
REMARK    3  A    between atoms: _3  and  _6
REMARK    4  A    between atoms: _6  and  _7
REMARK    5  A    between atoms: _7  and  _8
REMARK    6  A    between atoms: _8  and  _9
REMARK    7  A    between atoms: _18  and  _20
REMARK    8  A    between atoms: _20  and  _21
REMARK    9  A    between atoms: _20  and  _23
REMARK   10  A    between atoms: _23  and  _24
REMARK   11  A    between atoms: _27  and  _29
REMARK   12  A    between atoms: _29  and  _30
REMARK   13  A    between atoms: _29  and  _32
REMARK   14  A    between atoms: _32  and  _33
REMARK   15  A    between atoms: _36  and  _38
REMARK   16  A    between atoms: _38  and  _39
REMARK   17  A    between atoms: _38  and  _41
REMARK   18  A    between atoms: _41  and  _42
REMARK   19  A    between atoms: _45  and  _47
REMARK   20  A    between atoms: _47  and  _48
REMARK   21  A    between atoms: _47  and  _50
REMARK   22  A    between atoms: _50  and  _51
REMARK   23  A    between atoms: _54  and  _56
REMARK   24  A    between atoms: _56  and  _57
REMARK   25  A    between atoms: _59  and  _61
REMARK   26  A    between atoms: _61  and  _62
REMARK   27  A    between atoms: _65  and  _67
REMARK   28  A    between atoms: _67  and  _68
REMARK   29  A    between atoms: _67  and  _70
REMARK   30  A    between atoms: _70  and  _71
REMARK   31  A    between atoms: _74  and  _76
REMARK   32  A    between atoms: _76  and  _77
REMARK   33  A    between atoms: _76  and  _79
REMARK   34  A    between atoms: _79  and  _80
REMARK   35  A    between atoms: _83  and  _85
REMARK   36  A    between atoms: _85  and  _86
REMARK   37  A    between atoms: _85  and  _88
REMARK   38  A    between atoms: _88  and  _89
REMARK   39  A    between atoms: _92  and  _94
REMARK   40  A    between atoms: _94  and  _95
REMARK   41  A    between atoms: _94  and  _97
REMARK   42  A    between atoms: _100  and  _102
REMARK   43  A    between atoms: _102  and  _103
REMARK   44  A    between atoms: _102  and  _105
REMARK   45  A    between atoms: _105  and  _106
REMARK   46  A    between atoms: _106  and  _107
REMARK   47  A    between atoms: _109  and  _111
REMARK   48  A    between atoms: _111  and  _112
REMARK   49  A    between atoms: _111  and  _114
REMARK   50  A    between atoms: _114  and  _115
REMARK   51  A    between atoms: _118  and  _120
REMARK   52  A    between atoms: _120  and  _121
REMARK   53  A    between atoms: _123  and  _125
REMARK   54  A    between atoms: _125  and  _126
REMARK   55  A    between atoms: _128  and  _130
REMARK   56  A    between atoms: _130  and  _131
REMARK   57  A    between atoms: _130  and  _133
REMARK   58  A    between atoms: _133  and  _134
REMARK   59  A    between atoms: _137  and  _139
REMARK   60  A    between atoms: _139  and  _140
REMARK   61  A    between atoms: _142  and  _144
REMARK   62  A    between atoms: _144  and  _145
REMARK   63  A    between atoms: _147  and  _149
REMARK   64  A    between atoms: _149  and  _150
REMARK   65  A    between atoms: _149  and  _152
REMARK   66  A    between atoms: _152  and  _153
REMARK   67  A    between atoms: _156  and  _158
REMARK   68  A    between atoms: _158  and  _159
REMARK   69  A    between atoms: _158  and  _161
REMARK   70  A    between atoms: _161  and  _162
REMARK   71  A    between atoms: _166  and  _167
REMARK   72  A    between atoms: _172  and  _174
REMARK   73  A    between atoms: _174  and  _175
REMARK   74  A    between atoms: _174  and  _177
REMARK   75  A    between atoms: _177  and  _178
REMARK   76  A    between atoms: _182  and  _183
REMARK   77  A    between atoms: _188  and  _190
REMARK   78  A    between atoms: _190  and  _191
REMARK   79  A    between atoms: _190  and  _193
REMARK   80  A    between atoms: _196  and  _198
REMARK   81  A    between atoms: _198  and  _199
REMARK   82  A    between atoms: _198  and  _201
REMARK   83  A    between atoms: _201  and  _202
REMARK   84  A    between atoms: _207  and  _209
REMARK   85  A    between atoms: _209  and  _210
REMARK   86  A    between atoms: _209  and  _212
REMARK   87  A    between atoms: _212  and  _213
REMARK   88  A    between atoms: _216  and  _218
REMARK   89  A    between atoms: _218  and  _219
REMARK   90  A    between atoms: _218  and  _221
REMARK   91  A    between atoms: _221  and  _222
REMARK   92  A    between atoms: _225  and  _227
REMARK   93  A    between atoms: _227  and  _228
REMARK   94  A    between atoms: _230  and  _232
REMARK   95  A    between atoms: _232  and  _233
REMARK   96  A    between atoms: _232  and  _235
REMARK   97  A    between atoms: _235  and  _236
REMARK   98  A    between atoms: _236  and  _237
REMARK   99  A    between atoms: _237  and  _238
REMARK  100  A    between atoms: _247  and  _249
REMARK  101  A    between atoms: _249  and  _250
REMARK  102  A    between atoms: _249  and  _252
REMARK  103  A    between atoms: _252  and  _253
REMARK  104  A    between atoms: _258  and  _260
REMARK  105  A    between atoms: _260  and  _261
REMARK  106  A    between atoms: _260  and  _263
REMARK  107  A    between atoms: _263  and  _264
REMARK  108  A    between atoms: _264  and  _265
REMARK  109  A    between atoms: _265  and  _266
REMARK  110  A    between atoms: _275  and  _277
REMARK  111  A    between atoms: _277  and  _278
REMARK  112  A    between atoms: _277  and  _280
REMARK  113  A    between atoms: _280  and  _281
REMARK  114  A    between atoms: _284  and  _286
REMARK  115  A    between atoms: _286  and  _287
REMARK  116  A    between atoms: _286  and  _289
REMARK  117  A    between atoms: _289  and  _290
REMARK  118  A    between atoms: _293  and  _295
REMARK  119  A    between atoms: _295  and  _296
REMARK  120  A    between atoms: _295  and  _298
REMARK  121  A    between atoms: _298  and  _299
REMARK  122  A    between atoms: _302  and  _304
REMARK  123  A    between atoms: _304  and  _305
REMARK  124  A    between atoms: _304  and  _307
REMARK  125  A    between atoms: _307  and  _308
REMARK  126  A    between atoms: _311  and  _313
REMARK  127  A    between atoms: _313  and  _314
REMARK  128  A    between atoms: _313  and  _316
REMARK  129  A    between atoms: _316  and  _317
REMARK  130  A    between atoms: _320  and  _322
REMARK  131  A    between atoms: _322  and  _323
REMARK  132  A    between atoms: _325  and  _327
REMARK  133  A    between atoms: _327  and  _328
REMARK  134  A    between atoms: _331  and  _333
REMARK  135  A    between atoms: _333  and  _334
REMARK  136  A    between atoms: _333  and  _336
REMARK  137  A    between atoms: _336  and  _337
REMARK  138  A    between atoms: _340  and  _342
REMARK  139  A    between atoms: _342  and  _343
REMARK  140  A    between atoms: _342  and  _345
REMARK  141  A    between atoms: _345  and  _346
REMARK  142  A    between atoms: _349  and  _351
REMARK  143  A    between atoms: _351  and  _352
REMARK  144  A    between atoms: _351  and  _354
REMARK  145  A    between atoms: _354  and  _355
REMARK  146  A    between atoms: _358  and  _360
REMARK  147  A    between atoms: _360  and  _361
REMARK  148  A    between atoms: _360  and  _363
REMARK  149  A    between atoms: _366  and  _368
REMARK  150  A    between atoms: _368  and  _369
REMARK  151  A    between atoms: _368  and  _371
REMARK  152  A    between atoms: _371  and  _372
REMARK  153  A    between atoms: _372  and  _373
REMARK  154  A    between atoms: _375  and  _377
REMARK  155  A    between atoms: _377  and  _378
REMARK  156  A    between atoms: _377  and  _380
REMARK  157  A    between atoms: _380  and  _381
REMARK  158  A    between atoms: _384  and  _386
REMARK  159  A    between atoms: _386  and  _387
REMARK  160  A    between atoms: _389  and  _391
REMARK  161  A    between atoms: _391  and  _392
REMARK  162  A    between atoms: _394  and  _396
REMARK  163  A    between atoms: _396  and  _397
REMARK  164  A    between atoms: _396  and  _399
REMARK  165  A    between atoms: _399  and  _400
REMARK  166  A    between atoms: _403  and  _405
REMARK  167  A    between atoms: _405  and  _406
REMARK  168  A    between atoms: _408  and  _410
REMARK  169  A    between atoms: _410  and  _411
REMARK  170  A    between atoms: _413  and  _415
REMARK  171  A    between atoms: _415  and  _416
REMARK  172  A    between atoms: _415  and  _418
REMARK  173  A    between atoms: _418  and  _419
REMARK  174  A    between atoms: _425  and  _427
REMARK  175  A    between atoms: _427  and  _428
REMARK  176  A    between atoms: _427  and  _430
REMARK  177  A    between atoms: _430  and  _431
REMARK  178  A    between atoms: _434  and  _436
REMARK  179  A    between atoms: _436  and  _437
REMARK  180  A    between atoms: _436  and  _439
REMARK  181  A    between atoms: _442  and  _444
REMARK  182  A    between atoms: _444  and  _445
REMARK  183  A    between atoms: _444  and  _447
REMARK  184  A    between atoms: _447  and  _448
REMARK  185  A    between atoms: _451  and  _453
REMARK  186  A    between atoms: _453  and  _454
REMARK  187  A    between atoms: _453  and  _456
REMARK  188  A    between atoms: _456  and  _457
REMARK  189  A    between atoms: _461  and  _462
REMARK  190  A    between atoms: _467  and  _469
REMARK  191  A    between atoms: _469  and  _470
REMARK  192  A    between atoms: _469  and  _472
REMARK  193  A    between atoms: _475  and  _477
REMARK  194  A    between atoms: _477  and  _478
REMARK  195  A    between atoms: _477  and  _480
REMARK  196  A    between atoms: _480  and  _481
REMARK  197  A    between atoms: _486  and  _488
REMARK  198  A    between atoms: _488  and  _489
REMARK  199  A    between atoms: _488  and  _491
REMARK  200  A    between atoms: _491  and  _492
REMARK  201  A    between atoms: _495  and  _497
REMARK  202  A    between atoms: _497  and  _498
REMARK  203  A    between atoms: _497  and  _500
REMARK  204  A    between atoms: _500  and  _501
REMARK  205  A    between atoms: _504  and  _506
REMARK  206  A    between atoms: _506  and  _507
REMARK  207  A    between atoms: _509  and  _511
REMARK  208  A    between atoms: _511  and  _512
REMARK  209  A    between atoms: _511  and  _514
REMARK  210  A    between atoms: _514  and  _515
REMARK  211  A    between atoms: _515  and  _516
REMARK  212  A    between atoms: _516  and  _517
REMARK                            x       y       z     vdW  Elec       q    Type
REMARK                         _______ _______ _______ _____ _____    ______ ____
ROOT
ATOM      1  CA  ILE A   1      -1.688  -4.810   4.556  0.00  0.00    +0.133 C 
ENDROOT
BRANCH   1   2
ATOM      2  N   ILE A   1      -0.467  -3.997   4.403  0.00  0.00    -0.239 NA
ATOM      3  H   ILE A   1      -0.448  -3.030   4.786  0.00  0.00    +0.142 HD
ENDBRANCH   1   2
BRANCH   1   4
ATOM      4  CB  ILE A   1      -1.949  -5.319   6.047  0.00  0.00    +0.023 C 
ATOM      5  CG2 ILE A   1      -0.721  -6.053   6.602  0.00  0.00    +0.002 C 
BRANCH   4   6
ATOM      6  CG1 ILE A   1      -2.153  -4.173   7.018  0.00  0.00    +0.002 C 
ATOM      7  CD1 ILE A   1      -2.710  -4.731   8.346  0.00  0.00    +0.000 C 
ENDBRANCH   4   6
ENDBRANCH   1   4
BRANCH   1   8
ATOM      8  C   ILE A   1      -2.863  -3.910   4.129  0.00  0.00    +0.224 C 
ATOM      9  O   ILE A   1      -2.830  -2.663   4.158  0.00  0.00    -0.287 OA
ENDBRANCH   1   8
TORSDOF 4
REMARK  Name = ../refined-set-2016/1ohr/1ohr_pocket.pdb
REMARK  212 active torsions:
REMARK  status: ('A' for Active; 'I' for Inactive)
REMARK    1  A    between atoms: _1  and  _3
REMARK    2  A    between atoms: _3  and  _4
REMARK    3  A    between atoms: _3  and  _6
REMARK    4  A    between atoms: _6  and  _7
REMARK    5  A    between atoms: _7  and  _8
REMARK    6  A    between atoms: _8  and  _9
REMARK    7  A    between atoms: _18  and  _20
REMARK    8  A    between atoms: _20  and  _21
REMARK    9  A    between atoms: _20  and  _23
REMARK   10  A    between atoms: _23  and  _24
REMARK   11  A    between atoms: _27  and  _29
REMARK   12  A    between atoms: _29  and  _30
REMARK   13  A    between atoms: _29  and  _32
REMARK   14  A    between atoms: _32  and  _33
REMARK   15  A    between atoms: _36  and  _38
REMARK   16  A    between atoms: _38  and  _39
REMARK   17  A    between atoms: _38  and  _41
REMARK   18  A    between atoms: _41  and  _42
REMARK   19  A    between atoms: _45  and  _47
REMARK   20  A    between atoms: _47  and  _48
REMARK   21  A    between atoms: _47  and  _50
REMARK   22  A    between atoms: _50  and  _51
REMARK   23  A    between atoms: _54  and  _56
REMARK   24  A    between atoms: _56  and  _57
REMARK   25  A    between atoms: _59  and  _61
REMARK   26  A    between atoms: _61  and  _62
REMARK   27  A    between atoms: _65  and  _67
REMARK   28  A    between atoms: _67  and  _68
REMARK   29  A    between atoms: _67  and  _70
REMARK   30  A    between atoms: _70  and  _71
REMARK   31  A    between atoms: _74  and  _76
REMARK   32  A    between atoms: _76  and  _77
REMARK   33  A    between atoms: _76  and  _79
REMARK   34  A    between atoms: _79  and  _80
REMARK   35  A    between atoms: _83  and  _85
REMARK   36  A    between atoms: _85  and  _86
REMARK   37  A    between atoms: _85  and  _88
REMARK   38  A    between atoms: _88  and  _89
REMARK   39  A    between atoms: _92  and  _94
REMARK   40  A    between atoms: _94  and  _95
REMARK   41  A    between atoms: _94  and  _97
REMARK   42  A    between atoms: _100  and  _102
REMARK   43  A    between atoms: _102  and  _103
REMARK   44  A    between atoms: _102  and  _105
REMARK   45  A    between atoms: _105  and  _106
REMARK   46  A    between atoms: _106  and  _107
REMARK   47  A    between atoms: _109  and  _111
REMARK   48  A    between atoms: _111  and  _112
REMARK   49  A    between atoms: _111  and  _114
REMARK   50  A    between atoms: _114  and  _115
REMARK   51  A    between atoms: _118  and  _120
REMARK   52  A    between atoms: _120  and  _121
REMARK   53  A    between atoms: _123  and  _125
REMARK   54  A    between atoms: _125  and  _126
REMARK   55  A    between atoms: _128  and  _130
REMARK   56  A    between atoms: _130  and  _131
REMARK   57  A    between atoms: _130  and  _133
REMARK   58  A    between atoms: _133  and  _134
REMARK   59  A    between atoms: _137  and  _139
REMARK   60  A    between atoms: _139  and  _140
REMARK   61  A    between atoms: _142  and  _144
REMARK   62  A    between atoms: _144  and  _145
REMARK   63  A    between atoms: _147  and  _149
REMARK   64  A    between atoms: _149  and  _150
REMARK   65  A    between atoms: _149  and  _152
REMARK   66  A    between atoms: _152  and  _153
REMARK   67  A    between atoms: _156  and  _158
REMARK   68  A    between atoms: _158  and  _159
REMARK   69  A    between atoms: _158  and  _161
REMARK   70  A    between atoms: _161  and  _162
REMARK   71  A    between atoms: _166  and  _167
REMARK   72  A    between atoms: _172  and  _174
REMARK   73  A    between atoms: _174  and  _175
REMARK   74  A    between atoms: _174  and  _177
REMARK   75  A    between atoms: _177  and  _178
REMARK   76  A    between atoms: _182  and  _183
REMARK   77  A    between atoms: _188  and  _190
REMARK   78  A    between atoms: _190  and  _191
REMARK   79  A    between atoms: _190  and  _193
REMARK   80  A    between atoms: _196  and  _198
REMARK   81  A    between atoms: _198  and  _199
REMARK   82  A    between atoms: _198  and  _201
REMARK   83  A    between atoms: _201  and  _202
REMARK   84  A    between atoms: _207  and  _209
REMARK   85  A    between atoms: _209  and  _210
REMARK   86  A    between atoms: _209  and  _212
REMARK   87  A    between atoms: _212  and  _213
REMARK   88  A    between atoms: _216  and  _218
REMARK   89  A    between atoms: _218  and  _219
REMARK   90  A    between atoms: _218  and  _221
REMARK   91  A    between atoms: _221  and  _222
REMARK   92  A    between atoms: _225  and  _227
REMARK   93  A    between atoms: _227  and  _228
REMARK   94  A    between atoms: _230  and  _232
REMARK   95  A    between atoms: _232  and  _233
REMARK   96  A    between atoms: _232  and  _235
REMARK   97  A    between atoms: _235  and  _236
REMARK   98  A    between atoms: _236  and  _237
REMARK   99  A    between atoms: _237  and  _238
REMARK  100  A    between atoms: _247  and  _249
REMARK  101  A    between atoms: _249  and  _250
REMARK  102  A    between atoms: _249  and  _252
REMARK  103  A    between atoms: _252  and  _253
REMARK  104  A    between atoms: _258  and  _260
REMARK  105  A    between atoms: _260  and  _261
REMARK  106  A    between atoms: _260  and  _263
REMARK  107  A    between atoms: _263  and  _264
REMARK  108  A    between atoms: _264  and  _265
REMARK  109  A    between atoms: _265  and  _266
REMARK  110  A    between atoms: _275  and  _277
REMARK  111  A    between atoms: _277  and  _278
REMARK  112  A    between atoms: _277  and  _280
REMARK  113  A    between atoms: _280  and  _281
REMARK  114  A    between atoms: _284  and  _286
REMARK  115  A    between atoms: _286  and  _287
REMARK  116  A    between atoms: _286  and  _289
REMARK  117  A    between atoms: _289  and  _290
REMARK  118  A    between atoms: _293  and  _295
REMARK  119  A    between atoms: _295  and  _296
REMARK  120  A    between atoms: _295  and  _298
REMARK  121  A    between atoms: _298  and  _299
REMARK  122  A    between atoms: _302  and  _304
REMARK  123  A    between atoms: _304  and  _305
REMARK  124  A    between atoms: _304  and  _307
REMARK  125  A    between atoms: _307  and  _308
REMARK  126  A    between atoms: _311  and  _313
REMARK  127  A    between atoms: _313  and  _314
REMARK  128  A    between atoms: _313  and  _316
REMARK  129  A    between atoms: _316  and  _317
REMARK  130  A    between atoms: _320  and  _322
REMARK  131  A    between atoms: _322  and  _323
REMARK  132  A    between atoms: _325  and  _327
REMARK  133  A    between atoms: _327  and  _328
REMARK  134  A    between atoms: _331  and  _333
REMARK  135  A    between atoms: _333  and  _334
REMARK  136  A    between atoms: _333  and  _336
REMARK  137  A    between atoms: _336  and  _337
REMARK  138  A    between atoms: _340  and  _342
REMARK  139  A    between atoms: _342  and  _343
REMARK  140  A    between atoms: _342  and  _345
REMARK  141  A    between atoms: _345  and  _346
REMARK  142  A    between atoms: _349  and  _351
REMARK  143  A    between atoms: _351  and  _352
REMARK  144  A    between atoms: _351  and  _354
REMARK  145  A    between atoms: _354  and  _355
REMARK  146  A    between atoms: _358  and  _360
REMARK  147  A    between atoms: _360  and  _361
REMARK  148  A    between atoms: _360  and  _363
REMARK  149  A    between atoms: _366  and  _368
REMARK  150  A    between atoms: _368  and  _369
REMARK  151  A    between atoms: _368  and  _371
REMARK  152  A    between atoms: _371  and  _372
REMARK  153  A    between atoms: _372  and  _373
REMARK  154  A    between atoms: _375  and  _377
REMARK  155  A    between atoms: _377  and  _378
REMARK  156  A    between atoms: _377  and  _380
REMARK  157  A    between atoms: _380  and  _381
REMARK  158  A    between atoms: _384  and  _386
REMARK  159  A    between atoms: _386  and  _387
REMARK  160  A    between atoms: _389  and  _391
REMARK  161  A    between atoms: _391  and  _392
REMARK  162  A    between atoms: _394  and  _396
REMARK  163  A    between atoms: _396  and  _397
REMARK  164  A    between atoms: _396  and  _399
REMARK  165  A    between atoms: _399  and  _400
REMARK  166  A    between atoms: _403  and  _405
REMARK  167  A    between atoms: _405  and  _406
REMARK  168  A    between atoms: _408  and  _410
REMARK  169  A    between atoms: _410  and  _411
REMARK  170  A    between atoms: _413  and  _415
REMARK  171  A    between atoms: _415  and  _416
REMARK  172  A    between atoms: _415  and  _418
REMARK  173  A    between atoms: _418  and  _419
REMARK  174  A    between atoms: _425  and  _427
REMARK  175  A    between atoms: _427  and  _428
REMARK  176  A    between atoms: _427  and  _430
REMARK  177  A    between atoms: _430  and  _431
REMARK  178  A    between atoms: _434  and  _436
REMARK  179  A    between atoms: _436  and  _437
REMARK  180  A    between atoms: _436  and  _439
REMARK  181  A    between atoms: _442  and  _444
REMARK  182  A    between atoms: _444  and  _445
REMARK  183  A    between atoms: _444  and  _447
REMARK  184  A    between atoms: _447  and  _448
REMARK  185  A    between atoms: _451  and  _453
REMARK  186  A    between atoms: _453  and  _454
REMARK  187  A    between atoms: _453  and  _456
REMARK  188  A    between atoms: _456  and  _457
REMARK  189  A    between atoms: _461  and  _462
REMARK  190  A    between atoms: _467  and  _469
REMARK  191  A    between atoms: _469  and  _470
REMARK  192  A    between atoms: _469  and  _472
REMARK  193  A    between atoms: _475  and  _477
REMARK  194  A    between atoms: _477  and  _478
REMARK  195  A    between atoms: _477  and  _480
REMARK  196  A    between atoms: _480  and  _481
REMARK  197  A    between atoms: _486  and  _488
REMARK  198  A    between atoms: _488  and  _489
REMARK  199  A    between atoms: _488  and  _491
REMARK  200  A    between atoms: _491  and  _492
REMARK  201  A    between atoms: _495  and  _497
REMARK  202  A    between atoms: _497  and  _498
REMARK  203  A    between atoms: _497  and  _500
REMARK  204  A    between atoms: _500  and  _501
REMARK  205  A    between atoms: _504  and  _506
REMARK  206  A    between atoms: _506  and  _507
REMARK  207  A    between atoms: _509  and  _511
REMARK  208  A    between atoms: _511  and  _512
REMARK  209  A    between atoms: _511  and  _514
REMARK  210  A    between atoms: _514  and  _515
REMARK  211  A    between atoms: _515  and  _516
REMARK  212  A    between atoms: _516  and  _517
REMARK                            x       y       z     vdW  Elec       q    Type
REMARK                         _______ _______ _______ _____ _____    ______ ____
ROOT
ATOM      1  CA  LEU A   1      -8.459   1.207  10.348  0.00  0.00    +0.133 C 
ENDROOT
BRANCH   1   2
ATOM      2  N   LEU A   1      -8.679   2.106  11.493  0.00  0.00    -0.239 NA
ATOM      3  H   LEU A   1      -7.932   2.192  12.212  0.00  0.00    +0.142 HD
ENDBRANCH   1   2
BRANCH   1   4
ATOM      4  C   LEU A   1      -8.796  -0.198  10.825  0.00  0.00    +0.224 C 
ATOM      5  O   LEU A   1      -8.373  -0.593  11.918  0.00  0.00    -0.287 OA
ENDBRANCH   1   4
BRANCH   1   6
ATOM      6  CB  LEU A   1      -6.977   1.236   9.885  0.00  0.00    +0.025 C 
BRANCH   6   7
ATOM      7  CG  LEU A   1      -6.481   2.633   9.603  0.00  0.00    +0.002 C 
ATOM      8  CD2 LEU A   1      -5.025   2.604   9.180  0.00  0.00    +0.000 C 
ATOM      9  CD1 LEU A   1      -7.325   3.235   8.502  0.00  0.00    +0.000 C 
ENDBRANCH   6   7
ENDBRANCH   1   6
TORSDOF 4
REMARK  Name = ../refined-set-2016/1ohr/1ohr_pocket.pdb
REMARK  212 active torsions:
REMARK  status: ('A' for Active; 'I' for Inactive)
REMARK    1  A    between atoms: _1  and  _3
REMARK    2  A    between atoms: _3  and  _4
REMARK    3  A    between atoms: _3  and  _6
REMARK    4  A    between atoms: _6  and  _7
REMARK    5  A    between atoms: _7  and  _8
REMARK    6  A    between atoms: _8  and  _9
REMARK    7  A    between atoms: _18  and  _20
REMARK    8  A    between atoms: _20  and  _21
REMARK    9  A    between atoms: _20  and  _23
REMARK   10  A    between atoms: _23  and  _24
REMARK   11  A    between atoms: _27  and  _29
REMARK   12  A    between atoms: _29  and  _30
REMARK   13  A    between atoms: _29  and  _32
REMARK   14  A    between atoms: _32  and  _33
REMARK   15  A    between atoms: _36  and  _38
REMARK   16  A    between atoms: _38  and  _39
REMARK   17  A    between atoms: _38  and  _41
REMARK   18  A    between atoms: _41  and  _42
REMARK   19  A    between atoms: _45  and  _47
REMARK   20  A    between atoms: _47  and  _48
REMARK   21  A    between atoms: _47  and  _50
REMARK   22  A    between atoms: _50  and  _51
REMARK   23  A    between atoms: _54  and  _56
REMARK   24  A    between atoms: _56  and  _57
REMARK   25  A    between atoms: _59  and  _61
REMARK   26  A    between atoms: _61  and  _62
REMARK   27  A    between atoms: _65  and  _67
REMARK   28  A    between atoms: _67  and  _68
REMARK   29  A    between atoms: _67  and  _70
REMARK   30  A    between atoms: _70  and  _71
REMARK   31  A    between atoms: _74  and  _76
REMARK   32  A    between atoms: _76  and  _77
REMARK   33  A    between atoms: _76  and  _79
REMARK   34  A    between atoms: _79  and  _80
REMARK   35  A    between atoms: _83  and  _85
REMARK   36  A    between atoms: _85  and  _86
REMARK   37  A    between atoms: _85  and  _88
REMARK   38  A    between atoms: _88  and  _89
REMARK   39  A    between atoms: _92  and  _94
REMARK   40  A    between atoms: _94  and  _95
REMARK   41  A    between atoms: _94  and  _97
REMARK   42  A    between atoms: _100  and  _102
REMARK   43  A    between atoms: _102  and  _103
REMARK   44  A    between atoms: _102  and  _105
REMARK   45  A    between atoms: _105  and  _106
REMARK   46  A    between atoms: _106  and  _107
REMARK   47  A    between atoms: _109  and  _111
REMARK   48  A    between atoms: _111  and  _112
REMARK   49  A    between atoms: _111  and  _114
REMARK   50  A    between atoms: _114  and  _115
REMARK   51  A    between atoms: _118  and  _120
REMARK   52  A    between atoms: _120  and  _121
REMARK   53  A    between atoms: _123  and  _125
REMARK   54  A    between atoms: _125  and  _126
REMARK   55  A    between atoms: _128  and  _130
REMARK   56  A    between atoms: _130  and  _131
REMARK   57  A    between atoms: _130  and  _133
REMARK   58  A    between atoms: _133  and  _134
REMARK   59  A    between atoms: _137  and  _139
REMARK   60  A    between atoms: _139  and  _140
REMARK   61  A    between atoms: _142  and  _144
REMARK   62  A    between atoms: _144  and  _145
REMARK   63  A    between atoms: _147  and  _149
REMARK   64  A    between atoms: _149  and  _150
REMARK   65  A    between atoms: _149  and  _152
REMARK   66  A    between atoms: _152  and  _153
REMARK   67  A    between atoms: _156  and  _158
REMARK   68  A    between atoms: _158  and  _159
REMARK   69  A    between atoms: _158  and  _161
REMARK   70  A    between atoms: _161  and  _162
REMARK   71  A    between atoms: _166  and  _167
REMARK   72  A    between atoms: _172  and  _174
REMARK   73  A    between atoms: _174  and  _175
REMARK   74  A    between atoms: _174  and  _177
REMARK   75  A    between atoms: _177  and  _178
REMARK   76  A    between atoms: _182  and  _183
REMARK   77  A    between atoms: _188  and  _190
REMARK   78  A    between atoms: _190  and  _191
REMARK   79  A    between atoms: _190  and  _193
REMARK   80  A    between atoms: _196  and  _198
REMARK   81  A    between atoms: _198  and  _199
REMARK   82  A    between atoms: _198  and  _201
REMARK   83  A    between atoms: _201  and  _202
REMARK   84  A    between atoms: _207  and  _209
REMARK   85  A    between atoms: _209  and  _210
REMARK   86  A    between atoms: _209  and  _212
REMARK   87  A    between atoms: _212  and  _213
REMARK   88  A    between atoms: _216  and  _218
REMARK   89  A    between atoms: _218  and  _219
REMARK   90  A    between atoms: _218  and  _221
REMARK   91  A    between atoms: _221  and  _222
REMARK   92  A    between atoms: _225  and  _227
REMARK   93  A    between atoms: _227  and  _228
REMARK   94  A    between atoms: _230  and  _232
REMARK   95  A    between atoms: _232  and  _233
REMARK   96  A    between atoms: _232  and  _235
REMARK   97  A    between atoms: _235  and  _236
REMARK   98  A    between atoms: _236  and  _237
REMARK   99  A    between atoms: _237  and  _238
REMARK  100  A    between atoms: _247  and  _249
REMARK  101  A    between atoms: _249  and  _250
REMARK  102  A    between atoms: _249  and  _252
REMARK  103  A    between atoms: _252  and  _253
REMARK  104  A    between atoms: _258  and  _260
REMARK  105  A    between atoms: _260  and  _261
REMARK  106  A    between atoms: _260  and  _263
REMARK  107  A    between atoms: _263  and  _264
REMARK  108  A    between atoms: _264  and  _265
REMARK  109  A    between atoms: _265  and  _266
REMARK  110  A    between atoms: _275  and  _277
REMARK  111  A    between atoms: _277  and  _278
REMARK  112  A    between atoms: _277  and  _280
REMARK  113  A    between atoms: _280  and  _281
REMARK  114  A    between atoms: _284  and  _286
REMARK  115  A    between atoms: _286  and  _287
REMARK  116  A    between atoms: _286  and  _289
REMARK  117  A    between atoms: _289  and  _290
REMARK  118  A    between atoms: _293  and  _295
REMARK  119  A    between atoms: _295  and  _296
REMARK  120  A    between atoms: _295  and  _298
REMARK  121  A    between atoms: _298  and  _299
REMARK  122  A    between atoms: _302  and  _304
REMARK  123  A    between atoms: _304  and  _305
REMARK  124  A    between atoms: _304  and  _307
REMARK  125  A    between atoms: _307  and  _308
REMARK  126  A    between atoms: _311  and  _313
REMARK  127  A    between atoms: _313  and  _314
REMARK  128  A    between atoms: _313  and  _316
REMARK  129  A    between atoms: _316  and  _317
REMARK  130  A    between atoms: _320  and  _322
REMARK  131  A    between atoms: _322  and  _323
REMARK  132  A    between atoms: _325  and  _327
REMARK  133  A    between atoms: _327  and  _328
REMARK  134  A    between atoms: _331  and  _333
REMARK  135  A    between atoms: _333  and  _334
REMARK  136  A    between atoms: _333  and  _336
REMARK  137  A    between atoms: _336  and  _337
REMARK  138  A    between atoms: _340  and  _342
REMARK  139  A    between atoms: _342  and  _343
REMARK  140  A    between atoms: _342  and  _345
REMARK  141  A    between atoms: _345  and  _346
REMARK  142  A    between atoms: _349  and  _351
REMARK  143  A    between atoms: _351  and  _352
REMARK  144  A    between atoms: _351  and  _354
REMARK  145  A    between atoms: _354  and  _355
REMARK  146  A    between atoms: _358  and  _360
REMARK  147  A    between atoms: _360  and  _361
REMARK  148  A    between atoms: _360  and  _363
REMARK  149  A    between atoms: _366  and  _368
REMARK  150  A    between atoms: _368  and  _369
REMARK  151  A    between atoms: _368  and  _371
REMARK  152  A    between atoms: _371  and  _372
REMARK  153  A    between atoms: _372  and  _373
REMARK  154  A    between atoms: _375  and  _377
REMARK  155  A    between atoms: _377  and  _378
REMARK  156  A    between atoms: _377  and  _380
REMARK  157  A    between atoms: _380  and  _381
REMARK  158  A    between atoms: _384  and  _386
REMARK  159  A    between atoms: _386  and  _387
REMARK  160  A    between atoms: _389  and  _391
REMARK  161  A    between atoms: _391  and  _392
REMARK  162  A    between atoms: _394  and  _396
REMARK  163  A    between atoms: _396  and  _397
REMARK  164  A    between atoms: _396  and  _399
REMARK  165  A    between atoms: _399  and  _400
REMARK  166  A    between atoms: _403  and  _405
REMARK  167  A    between atoms: _405  and  _406
REMARK  168  A    between atoms: _408  and  _410
REMARK  169  A    between atoms: _410  and  _411
REMARK  170  A    between atoms: _413  and  _415
REMARK  171  A    between atoms: _415  and  _416
REMARK  172  A    between atoms: _415  and  _418
REMARK  173  A    between atoms: _418  and  _419
REMARK  174  A    between atoms: _425  and  _427
REMARK  175  A    between atoms: _427  and  _428
REMARK  176  A    between atoms: _427  and  _430
REMARK  177  A    between atoms: _430  and  _431
REMARK  178  A    between atoms: _434  and  _436
REMARK  179  A    between atoms: _436  and  _437
REMARK  180  A    between atoms: _436  and  _439
REMARK  181  A    between atoms: _442  and  _444
REMARK  182  A    between atoms: _444  and  _445
REMARK  183  A    between atoms: _444  and  _447
REMARK  184  A    between atoms: _447  and  _448
REMARK  185  A    between atoms: _451  and  _453
REMARK  186  A    between atoms: _453  and  _454
REMARK  187  A    between atoms: _453  and  _456
REMARK  188  A    between atoms: _456  and  _457
REMARK  189  A    between atoms: _461  and  _462
REMARK  190  A    between atoms: _467  and  _469
REMARK  191  A    between atoms: _469  and  _470
REMARK  192  A    between atoms: _469  and  _472
REMARK  193  A    between atoms: _475  and  _477
REMARK  194  A    between atoms: _477  and  _478
REMARK  195  A    between atoms: _477  and  _480
REMARK  196  A    between atoms: _480  and  _481
REMARK  197  A    between atoms: _486  and  _488
REMARK  198  A    between atoms: _488  and  _489
REMARK  199  A    between atoms: _488  and  _491
REMARK  200  A    between atoms: _491  and  _492
REMARK  201  A    between atoms: _495  and  _497
REMARK  202  A    between atoms: _497  and  _498
REMARK  203  A    between atoms: _497  and  _500
REMARK  204  A    between atoms: _500  and  _501
REMARK  205  A    between atoms: _504  and  _506
REMARK  206  A    between atoms: _506  and  _507
REMARK  207  A    between atoms: _509  and  _511
REMARK  208  A    between atoms: _511  and  _512
REMARK  209  A    between atoms: _511  and  _514
REMARK  210  A    between atoms: _514  and  _515
REMARK  211  A    between atoms: _515  and  _516
REMARK  212  A    between atoms: _516  and  _517
REMARK                            x       y       z     vdW  Elec       q    Type
REMARK                         _______ _______ _______ _____ _____    ______ ____
ROOT
ATOM      1  CA  ILE A   6      -3.104  -0.970  18.073  0.00  0.00    +0.149 C 
ENDROOT
BRANCH   1   2
ATOM      2  C   ILE A   6      -3.737   0.399  18.173  0.00  0.00    +0.241 C 
ATOM      3  N   ILE A   7      -3.427   1.192  19.206  0.00  0.00    -0.297 N 
ATOM      4  H   ILE A   7      -2.802   0.837  19.957  0.00  0.00    +0.150 HD
ATOM      5  O   ILE A   6      -4.506   0.754  17.271  0.00  0.00    -0.273 OA
BRANCH   3   6
ATOM      6  CA  ILE A   7      -3.959   2.556  19.290  0.00  0.00    +0.149 C 
BRANCH   6   7
ATOM      7  C   ILE A   7      -2.730   3.377  18.915  0.00  0.00    +0.241 C 
ATOM      8  O   ILE A   7      -1.723   3.317  19.612  0.00  0.00    -0.273 OA
ATOM      9  N   GLY A   8      -2.759   4.064  17.781  0.00  0.00    -0.295 N 
ATOM     10  H   GLY A   8      -3.617   4.008  17.196  0.00  0.00    +0.150 HD
BRANCH   9  11
ATOM     11  CA  GLY A   8      -1.662   4.890  17.308  0.00  0.00    +0.176 C 
BRANCH  11  12
ATOM     12  C   GLY A   8      -1.793   6.340  17.730  0.00  0.00    +0.243 C 
ATOM     13  O   GLY A   8      -2.748   6.746  18.407  0.00  0.00    -0.273 OA
ATOM     14  N   ARG A   9      -0.839   7.149  17.274  0.00  0.00    -0.297 N 
ATOM     15  H   ARG A   9      -0.103   6.760  16.650  0.00  0.00    +0.150 HD
BRANCH  14  16
ATOM     16  CA  ARG A   9      -0.794   8.575  17.625  0.00  0.00    +0.149 C 
BRANCH  16  17
ATOM     17  C   ARG A   9      -2.001   9.357  17.253  0.00  0.00    +0.241 C 
ATOM     18  O   ARG A   9      -2.293  10.298  17.988  0.00  0.00    -0.273 OA
ATOM     19  N   ASN A  10      -2.766   8.992  16.228  0.00  0.00    -0.298 N 
ATOM     20  H   ASN A  10      -2.541   8.144  15.669  0.00  0.00    +0.150 HD
BRANCH  19  21
ATOM     21  CA  ASN A  10      -3.941   9.822  15.905  0.00  0.00    +0.146 C 
BRANCH  21  22
ATOM     22  C   ASN A  10      -4.918   9.833  17.074  0.00  0.00    +0.227 C 
ATOM     23  O   ASN A  10      -5.636  10.811  17.312  0.00  0.00    -0.286 OA
ENDBRANCH  21  22
BRANCH  21  24
ATOM     24  CB  ASN A  10      -4.626   9.297  14.646  0.00  0.00    +0.112 C 
BRANCH  24  25
ATOM     25  CG  ASN A  10      -5.220   7.940  14.919  0.00  0.00    +0.222 C 
ATOM     26  OD1 ASN A  10      -4.561   7.024  15.437  0.00  0.00    -0.275 OA
ATOM     27  ND2 ASN A  10      -6.488   7.824  14.609  0.00  0.00    -0.329 N 
ATOM     28 HD21 ASN A  10      -6.989   6.932  14.796  0.00  0.00    +0.145 HD
ATOM     29 HD22 ASN A  10      -6.993   8.624  14.176  0.00  0.00    +0.145 HD
ENDBRANCH  24  25
ENDBRANCH  21  24
ENDBRANCH  19  21
ENDBRANCH  16  17
BRANCH  16  30
ATOM     30  CB  ARG A   9       0.443   9.268  16.998  0.00  0.00    +0.033 C 
BRANCH  30  31
ATOM     31  CG  ARG A   9       1.777   8.744  17.577  0.00  0.00    +0.045 C 
BRANCH  31  32
ATOM     32  CD  ARG A   9       2.998   9.598  17.212  0.00  0.00    +0.174 C 
BRANCH  32  33
ATOM     33  NE  ARG A   9       3.164   9.463  15.755  0.00  0.00    -0.265 N 
ATOM     34  HE  ARG A   9       3.629   8.611  15.382  0.00  0.00    +0.259 HD
ATOM     35  CZ  ARG A   9       2.743  10.387  14.900  0.00  0.00    +0.342 C 
ATOM     36  NH2 ARG A   9       2.200  11.539  15.316  0.00  0.00    -0.292 N 
ATOM     37 HH21 ARG A   9       2.099  11.729  16.334  0.00  0.00    +0.255 HD
ATOM     38 HH22 ARG A   9       1.880  12.244  14.621  0.00  0.00    +0.255 HD
ATOM     39  NH1 ARG A   9       2.916  10.142  13.606  0.00  0.00    -0.292 N 
ATOM     40 HH11 ARG A   9       3.365   9.255  13.300  0.00  0.00    +0.255 HD
ATOM     41 HH12 ARG A   9       2.602  10.837  12.899  0.00  0.00    +0.255 HD
ENDBRANCH  32  33
ENDBRANCH  31  32
ENDBRANCH  30  31
ENDBRANCH  16  30
ENDBRANCH  14  16
ENDBRANCH  11  12
ENDBRANCH   9  11
ENDBRANCH   6   7
BRANCH   6  42
ATOM     42  CB  ILE A   7      -4.453   2.901  20.729  0.00  0.00    +0.027 C 
ATOM     43  CG2 ILE A   7      -4.998   4.344  20.668  0.00  0.00    +0.002 C 
BRANCH  42  44
ATOM     44  CG1 ILE A   7      -5.570   1.921  21.253  0.00  0.00    +0.002 C 
ATOM     45  CD1 ILE A   7      -6.827   1.890  20.327  0.00  0.00    +0.000 C 
ENDBRANCH  42  44
ENDBRANCH   6  42
ENDBRANCH   3   6
ENDBRANCH   1   2
BRANCH   1  48
ATOM     46  C   ASN A   5      -4.247  -3.075  18.611  0.00  0.00    +0.241 C 
ATOM     47  O   ASN A   5      -3.689  -3.189  19.691  0.00  0.00    -0.273 OA
ATOM     48  N   ILE A   6      -4.063  -2.037  17.822  0.00  0.00    -0.297 N 
ATOM     49  H   ILE A   6      -4.642  -1.975  16.960  0.00  0.00    +0.150 HD
BRANCH  46  50
ATOM     50  CA  ASN A   5      -5.208  -4.141  18.184  0.00  0.00    +0.158 C 
BRANCH  50  52
ATOM     51  C   VAL A   4      -3.571  -5.831  17.429  0.00  0.00    +0.241 C 
ATOM     52  N   ASN A   5      -4.500  -5.435  18.294  0.00  0.00    -0.297 N 
ATOM     53  H   ASN A   5      -4.740  -6.065  19.086  0.00  0.00    +0.150 HD
ATOM     54  O   VAL A   4      -3.262  -5.172  16.439  0.00  0.00    -0.273 OA
BRANCH  51  55
ATOM     55  CA  VAL A   4      -2.898  -7.174  17.623  0.00  0.00    +0.149 C 
BRANCH  55  58
ATOM     56  C   PRO A   3      -2.330  -8.966  15.956  0.00  0.00    +0.241 C 
ATOM     57  O   PRO A   3      -2.732  -9.840  16.699  0.00  0.00    -0.273 OA
ATOM     58  N   VAL A   4      -2.390  -7.656  16.297  0.00  0.00    -0.297 N 
ATOM     59  H   VAL A   4      -2.068  -6.950  15.605  0.00  0.00    +0.150 HD
BRANCH  56  63
ATOM     60  C   THR A   2      -3.258  -8.050  13.266  0.00  0.00    +0.246 C 
ATOM     61  O   THR A   2      -4.217  -8.585  13.827  0.00  0.00    -0.273 OA
ATOM     62  N   PRO A   3      -2.014  -8.433  13.564  0.00  0.00    -0.272 N 
ATOM     63  CA  PRO A   3      -1.750  -9.395  14.638  0.00  0.00    +0.152 C 
ATOM     64  CB  PRO A   3      -0.236  -9.521  14.718  0.00  0.00    +0.031 C 
ATOM     65  CG  PRO A   3       0.180  -9.127  13.293  0.00  0.00    +0.024 C 
ATOM     66  CD  PRO A   3      -0.749  -7.954  12.945  0.00  0.00    +0.094 C 
BRANCH  60  67
ATOM     67  CA  THR A   2      -3.453  -6.915  12.257  0.00  0.00    +0.176 C 
BRANCH  67  69
ATOM     68  C   PRO A   1      -4.498  -7.998  10.387  0.00  0.00    +0.239 C 
ATOM     69  N   THR A   2      -4.626  -7.210  11.432  0.00  0.00    -0.295 N 
ATOM     70  H   THR A   2      -5.552  -6.800  11.670  0.00  0.00    +0.150 HD
ATOM     71  O   PRO A   1      -3.385  -8.369  10.028  0.00  0.00    -0.274 OA
BRANCH  68  73
ATOM     72  N   PRO A   1      -6.388  -7.089   9.036  0.00  0.00    -0.210 NA
ATOM     73  CA  PRO A   1      -5.768  -8.300   9.595  0.00  0.00    +0.149 C 
ATOM     74  CB  PRO A   1      -5.581  -9.190   8.342  0.00  0.00    +0.028 C 
ATOM     75  CG  PRO A   1      -5.128  -8.161   7.319  0.00  0.00    +0.021 C 
ATOM     76  CD  PRO A   1      -6.069  -6.950   7.592  0.00  0.00    +0.089 C 
ENDBRANCH  68  73
ENDBRANCH  67  69
BRANCH  67  77
ATOM     77  CB  THR A   2      -3.677  -5.558  12.956  0.00  0.00    +0.137 C 
ATOM     78  CG2 THR A   2      -4.999  -5.504  13.779  0.00  0.00    +0.034 C 
BRANCH  77  79
ATOM     79  OG1 THR A   2      -2.493  -5.322  13.752  0.00  0.00    -0.382 OA
ATOM     80  HG1 THR A   2      -2.389  -6.053  14.412  0.00  0.00    +0.210 HD
ENDBRANCH  77  79
ENDBRANCH  67  77
ENDBRANCH  60  67
ENDBRANCH  56  63
ENDBRANCH  55  58
BRANCH  55  81
ATOM     81  CB  VAL A   4      -1.666  -7.055  18.599  0.00  0.00    +0.027 C 
ATOM     82  CG2 VAL A   4      -2.044  -6.484  19.983  0.00  0.00    +0.002 C 
ATOM     83  CG1 VAL A   4      -0.662  -6.087  17.982  0.00  0.00    +0.002 C 
ENDBRANCH  55  81
ENDBRANCH  51  55
ENDBRANCH  50  52
BRANCH  50  84
ATOM     84  CB  ASN A   5      -6.404  -4.038  19.101  0.00  0.00    +0.114 C 
BRANCH  84  85
ATOM     85  CG  ASN A   5      -7.441  -5.010  18.620  0.00  0.00    +0.222 C 
ATOM     86  ND2 ASN A   5      -8.040  -5.786  19.502  0.00  0.00    -0.329 N 
ATOM     87 HD21 ASN A   5      -7.767  -5.741  20.505  0.00  0.00    +0.145 HD
ATOM     88 HD22 ASN A   5      -8.785  -6.443  19.195  0.00  0.00    +0.145 HD
ATOM     89  OD1 ASN A   5      -7.769  -5.071  17.447  0.00  0.00    -0.275 OA
ENDBRANCH  84  85
ENDBRANCH  50  84
ENDBRANCH  46  50
ENDBRANCH   1  48
BRANCH   1  90
ATOM     90  CB  ILE A   6      -2.104  -1.003  16.897  0.00  0.00    +0.027 C 
ATOM     91  CG2 ILE A   6      -1.261   0.257  16.874  0.00  0.00    +0.002 C 
BRANCH  90  92
ATOM     92  CG1 ILE A   6      -1.229  -2.245  16.993  0.00  0.00    +0.002 C 
ATOM     93  CD1 ILE A   6      -1.076  -2.606  15.492  0.00  0.00    +0.000 C 
ENDBRANCH  90  92
ENDBRANCH   1  90
TORSDOF 33
REMARK  Name = ../refined-set-2016/1ohr/1ohr_pocket.pdb
REMARK  212 active torsions:
REMARK  status: ('A' for Active; 'I' for Inactive)
REMARK    1  A    between atoms: _1  and  _3
REMARK    2  A    between atoms: _3  and  _4
REMARK    3  A    between atoms: _3  and  _6
REMARK    4  A    between atoms: _6  and  _7
REMARK    5  A    between atoms: _7  and  _8
REMARK    6  A    between atoms: _8  and  _9
REMARK    7  A    between atoms: _18  and  _20
REMARK    8  A    between atoms: _20  and  _21
REMARK    9  A    between atoms: _20  and  _23
REMARK   10  A    between atoms: _23  and  _24
REMARK   11  A    between atoms: _27  and  _29
REMARK   12  A    between atoms: _29  and  _30
REMARK   13  A    between atoms: _29  and  _32
REMARK   14  A    between atoms: _32  and  _33
REMARK   15  A    between atoms: _36  and  _38
REMARK   16  A    between atoms: _38  and  _39
REMARK   17  A    between atoms: _38  and  _41
REMARK   18  A    between atoms: _41  and  _42
REMARK   19  A    between atoms: _45  and  _47
REMARK   20  A    between atoms: _47  and  _48
REMARK   21  A    between atoms: _47  and  _50
REMARK   22  A    between atoms: _50  and  _51
REMARK   23  A    between atoms: _54  and  _56
REMARK   24  A    between atoms: _56  and  _57
REMARK   25  A    between atoms: _59  and  _61
REMARK   26  A    between atoms: _61  and  _62
REMARK   27  A    between atoms: _65  and  _67
REMARK   28  A    between atoms: _67  and  _68
REMARK   29  A    between atoms: _67  and  _70
REMARK   30  A    between atoms: _70  and  _71
REMARK   31  A    between atoms: _74  and  _76
REMARK   32  A    between atoms: _76  and  _77
REMARK   33  A    between atoms: _76  and  _79
REMARK   34  A    between atoms: _79  and  _80
REMARK   35  A    between atoms: _83  and  _85
REMARK   36  A    between atoms: _85  and  _86
REMARK   37  A    between atoms: _85  and  _88
REMARK   38  A    between atoms: _88  and  _89
REMARK   39  A    between atoms: _92  and  _94
REMARK   40  A    between atoms: _94  and  _95
REMARK   41  A    between atoms: _94  and  _97
REMARK   42  A    between atoms: _100  and  _102
REMARK   43  A    between atoms: _102  and  _103
REMARK   44  A    between atoms: _102  and  _105
REMARK   45  A    between atoms: _105  and  _106
REMARK   46  A    between atoms: _106  and  _107
REMARK   47  A    between atoms: _109  and  _111
REMARK   48  A    between atoms: _111  and  _112
REMARK   49  A    between atoms: _111  and  _114
REMARK   50  A    between atoms: _114  and  _115
REMARK   51  A    between atoms: _118  and  _120
REMARK   52  A    between atoms: _120  and  _121
REMARK   53  A    between atoms: _123  and  _125
REMARK   54  A    between atoms: _125  and  _126
REMARK   55  A    between atoms: _128  and  _130
REMARK   56  A    between atoms: _130  and  _131
REMARK   57  A    between atoms: _130  and  _133
REMARK   58  A    between atoms: _133  and  _134
REMARK   59  A    between atoms: _137  and  _139
REMARK   60  A    between atoms: _139  and  _140
REMARK   61  A    between atoms: _142  and  _144
REMARK   62  A    between atoms: _144  and  _145
REMARK   63  A    between atoms: _147  and  _149
REMARK   64  A    between atoms: _149  and  _150
REMARK   65  A    between atoms: _149  and  _152
REMARK   66  A    between atoms: _152  and  _153
REMARK   67  A    between atoms: _156  and  _158
REMARK   68  A    between atoms: _158  and  _159
REMARK   69  A    between atoms: _158  and  _161
REMARK   70  A    between atoms: _161  and  _162
REMARK   71  A    between atoms: _166  and  _167
REMARK   72  A    between atoms: _172  and  _174
REMARK   73  A    between atoms: _174  and  _175
REMARK   74  A    between atoms: _174  and  _177
REMARK   75  A    between atoms: _177  and  _178
REMARK   76  A    between atoms: _182  and  _183
REMARK   77  A    between atoms: _188  and  _190
REMARK   78  A    between atoms: _190  and  _191
REMARK   79  A    between atoms: _190  and  _193
REMARK   80  A    between atoms: _196  and  _198
REMARK   81  A    between atoms: _198  and  _199
REMARK   82  A    between atoms: _198  and  _201
REMARK   83  A    between atoms: _201  and  _202
REMARK   84  A    between atoms: _207  and  _209
REMARK   85  A    between atoms: _209  and  _210
REMARK   86  A    between atoms: _209  and  _212
REMARK   87  A    between atoms: _212  and  _213
REMARK   88  A    between atoms: _216  and  _218
REMARK   89  A    between atoms: _218  and  _219
REMARK   90  A    between atoms: _218  and  _221
REMARK   91  A    between atoms: _221  and  _222
REMARK   92  A    between atoms: _225  and  _227
REMARK   93  A    between atoms: _227  and  _228
REMARK   94  A    between atoms: _230  and  _232
REMARK   95  A    between atoms: _232  and  _233
REMARK   96  A    between atoms: _232  and  _235
REMARK   97  A    between atoms: _235  and  _236
REMARK   98  A    between atoms: _236  and  _237
REMARK   99  A    between atoms: _237  and  _238
REMARK  100  A    between atoms: _247  and  _249
REMARK  101  A    between atoms: _249  and  _250
REMARK  102  A    between atoms: _249  and  _252
REMARK  103  A    between atoms: _252  and  _253
REMARK  104  A    between atoms: _258  and  _260
REMARK  105  A    between atoms: _260  and  _261
REMARK  106  A    between atoms: _260  and  _263
REMARK  107  A    between atoms: _263  and  _264
REMARK  108  A    between atoms: _264  and  _265
REMARK  109  A    between atoms: _265  and  _266
REMARK  110  A    between atoms: _275  and  _277
REMARK  111  A    between atoms: _277  and  _278
REMARK  112  A    between atoms: _277  and  _280
REMARK  113  A    between atoms: _280  and  _281
REMARK  114  A    between atoms: _284  and  _286
REMARK  115  A    between atoms: _286  and  _287
REMARK  116  A    between atoms: _286  and  _289
REMARK  117  A    between atoms: _289  and  _290
REMARK  118  A    between atoms: _293  and  _295
REMARK  119  A    between atoms: _295  and  _296
REMARK  120  A    between atoms: _295  and  _298
REMARK  121  A    between atoms: _298  and  _299
REMARK  122  A    between atoms: _302  and  _304
REMARK  123  A    between atoms: _304  and  _305
REMARK  124  A    between atoms: _304  and  _307
REMARK  125  A    between atoms: _307  and  _308
REMARK  126  A    between atoms: _311  and  _313
REMARK  127  A    between atoms: _313  and  _314
REMARK  128  A    between atoms: _313  and  _316
REMARK  129  A    between atoms: _316  and  _317
REMARK  130  A    between atoms: _320  and  _322
REMARK  131  A    between atoms: _322  and  _323
REMARK  132  A    between atoms: _325  and  _327
REMARK  133  A    between atoms: _327  and  _328
REMARK  134  A    between atoms: _331  and  _333
REMARK  135  A    between atoms: _333  and  _334
REMARK  136  A    between atoms: _333  and  _336
REMARK  137  A    between atoms: _336  and  _337
REMARK  138  A    between atoms: _340  and  _342
REMARK  139  A    between atoms: _342  and  _343
REMARK  140  A    between atoms: _342  and  _345
REMARK  141  A    between atoms: _345  and  _346
REMARK  142  A    between atoms: _349  and  _351
REMARK  143  A    between atoms: _351  and  _352
REMARK  144  A    between atoms: _351  and  _354
REMARK  145  A    between atoms: _354  and  _355
REMARK  146  A    between atoms: _358  and  _360
REMARK  147  A    between atoms: _360  and  _361
REMARK  148  A    between atoms: _360  and  _363
REMARK  149  A    between atoms: _366  and  _368
REMARK  150  A    between atoms: _368  and  _369
REMARK  151  A    between atoms: _368  and  _371
REMARK  152  A    between atoms: _371  and  _372
REMARK  153  A    between atoms: _372  and  _373
REMARK  154  A    between atoms: _375  and  _377
REMARK  155  A    between atoms: _377  and  _378
REMARK  156  A    between atoms: _377  and  _380
REMARK  157  A    between atoms: _380  and  _381
REMARK  158  A    between atoms: _384  and  _386
REMARK  159  A    between atoms: _386  and  _387
REMARK  160  A    between atoms: _389  and  _391
REMARK  161  A    between atoms: _391  and  _392
REMARK  162  A    between atoms: _394  and  _396
REMARK  163  A    between atoms: _396  and  _397
REMARK  164  A    between atoms: _396  and  _399
REMARK  165  A    between atoms: _399  and  _400
REMARK  166  A    between atoms: _403  and  _405
REMARK  167  A    between atoms: _405  and  _406
REMARK  168  A    between atoms: _408  and  _410
REMARK  169  A    between atoms: _410  and  _411
REMARK  170  A    between atoms: _413  and  _415
REMARK  171  A    between atoms: _415  and  _416
REMARK  172  A    between atoms: _415  and  _418
REMARK  173  A    between atoms: _418  and  _419
REMARK  174  A    between atoms: _425  and  _427
REMARK  175  A    between atoms: _427  and  _428
REMARK  176  A    between atoms: _427  and  _430
REMARK  177  A    between atoms: _430  and  _431
REMARK  178  A    between atoms: _434  and  _436
REMARK  179  A    between atoms: _436  and  _437
REMARK  180  A    between atoms: _436  and  _439
REMARK  181  A    between atoms: _442  and  _444
REMARK  182  A    between atoms: _444  and  _445
REMARK  183  A    between atoms: _444  and  _447
REMARK  184  A    between atoms: _447  and  _448
REMARK  185  A    between atoms: _451  and  _453
REMARK  186  A    between atoms: _453  and  _454
REMARK  187  A    between atoms: _453  and  _456
REMARK  188  A    between atoms: _456  and  _457
REMARK  189  A    between atoms: _461  and  _462
REMARK  190  A    between atoms: _467  and  _469
REMARK  191  A    between atoms: _469  and  _470
REMARK  192  A    between atoms: _469  and  _472
REMARK  193  A    between atoms: _475  and  _477
REMARK  194  A    between atoms: _477  and  _478
REMARK  195  A    between atoms: _477  and  _480
REMARK  196  A    between atoms: _480  and  _481
REMARK  197  A    between atoms: _486  and  _488
REMARK  198  A    between atoms: _488  and  _489
REMARK  199  A    between atoms: _488  and  _491
REMARK  200  A    between atoms: _491  and  _492
REMARK  201  A    between atoms: _495  and  _497
REMARK  202  A    between atoms: _497  and  _498
REMARK  203  A    between atoms: _497  and  _500
REMARK  204  A    between atoms: _500  and  _501
REMARK  205  A    between atoms: _504  and  _506
REMARK  206  A    between atoms: _506  and  _507
REMARK  207  A    between atoms: _509  and  _511
REMARK  208  A    between atoms: _511  and  _512
REMARK  209  A    between atoms: _511  and  _514
REMARK  210  A    between atoms: _514  and  _515
REMARK  211  A    between atoms: _515  and  _516
REMARK  212  A    between atoms: _516  and  _517
REMARK                            x       y       z     vdW  Elec       q    Type
REMARK                         _______ _______ _______ _____ _____    ______ ____
ROOT
ATOM      1  NE  ARG A   1       6.257   8.156  11.412  0.00  0.00    -0.265 N 
ATOM      2  HE  ARG A   1       5.425   7.699  11.838  0.00  0.00    +0.259 HD
ATOM      3  CZ  ARG A   1       6.451   8.074  10.108  0.00  0.00    +0.342 C 
ATOM      4  NH2 ARG A   1       7.474   8.704   9.537  0.00  0.00    -0.292 N 
ATOM      5 HH21 ARG A   1       8.128   9.266  10.118  0.00  0.00    +0.255 HD
ATOM      6 HH22 ARG A   1       7.620   8.634   8.510  0.00  0.00    +0.255 HD
ATOM      7  NH1 ARG A   1       5.577   7.406   9.365  0.00  0.00    -0.292 N 
ATOM      8 HH11 ARG A   1       4.752   6.956   9.811  0.00  0.00    +0.255 HD
ATOM      9 HH12 ARG A   1       5.717   7.333   8.337  0.00  0.00    +0.255 HD
ENDROOT
BRANCH   1  10
ATOM     10  CD  ARG A   1       7.199   8.882  12.263  0.00  0.00    +0.174 C 
BRANCH  10  11
ATOM     11  CG  ARG A   1       6.394   9.697  13.252  0.00  0.00    +0.045 C 
BRANCH  11  12
ATOM     12  CB  ARG A   1       7.312  10.227  14.352  0.00  0.00    +0.029 C 
BRANCH  12  13
ATOM     13  CA  ARG A   1       6.589  10.833  15.534  0.00  0.00    +0.133 C 
BRANCH  13  14
ATOM     14  N   ARG A   1       5.978  12.094  15.157  0.00  0.00    -0.239 NA
ATOM     15  H   ARG A   1       6.060  12.425  14.175  0.00  0.00    +0.142 HD
ENDBRANCH  13  14
BRANCH  13  16
ATOM     16  C   ARG A   1       7.603  11.148  16.607  0.00  0.00    +0.224 C 
ATOM     17  O   ARG A   1       8.372  12.092  16.429  0.00  0.00    -0.287 OA
ENDBRANCH  13  16
ENDBRANCH  12  13
ENDBRANCH  11  12
ENDBRANCH  10  11
ENDBRANCH   1  10
TORSDOF 6
REMARK  Name = ../refined-set-2016/1ohr/1ohr_pocket.pdb
REMARK  212 active torsions:
REMARK  status: ('A' for Active; 'I' for Inactive)
REMARK    1  A    between atoms: _1  and  _3
REMARK    2  A    between atoms: _3  and  _4
REMARK    3  A    between atoms: _3  and  _6
REMARK    4  A    between atoms: _6  and  _7
REMARK    5  A    between atoms: _7  and  _8
REMARK    6  A    between atoms: _8  and  _9
REMARK    7  A    between atoms: _18  and  _20
REMARK    8  A    between atoms: _20  and  _21
REMARK    9  A    between atoms: _20  and  _23
REMARK   10  A    between atoms: _23  and  _24
REMARK   11  A    between atoms: _27  and  _29
REMARK   12  A    between atoms: _29  and  _30
REMARK   13  A    between atoms: _29  and  _32
REMARK   14  A    between atoms: _32  and  _33
REMARK   15  A    between atoms: _36  and  _38
REMARK   16  A    between atoms: _38  and  _39
REMARK   17  A    between atoms: _38  and  _41
REMARK   18  A    between atoms: _41  and  _42
REMARK   19  A    between atoms: _45  and  _47
REMARK   20  A    between atoms: _47  and  _48
REMARK   21  A    between atoms: _47  and  _50
REMARK   22  A    between atoms: _50  and  _51
REMARK   23  A    between atoms: _54  and  _56
REMARK   24  A    between atoms: _56  and  _57
REMARK   25  A    between atoms: _59  and  _61
REMARK   26  A    between atoms: _61  and  _62
REMARK   27  A    between atoms: _65  and  _67
REMARK   28  A    between atoms: _67  and  _68
REMARK   29  A    between atoms: _67  and  _70
REMARK   30  A    between atoms: _70  and  _71
REMARK   31  A    between atoms: _74  and  _76
REMARK   32  A    between atoms: _76  and  _77
REMARK   33  A    between atoms: _76  and  _79
REMARK   34  A    between atoms: _79  and  _80
REMARK   35  A    between atoms: _83  and  _85
REMARK   36  A    between atoms: _85  and  _86
REMARK   37  A    between atoms: _85  and  _88
REMARK   38  A    between atoms: _88  and  _89
REMARK   39  A    between atoms: _92  and  _94
REMARK   40  A    between atoms: _94  and  _95
REMARK   41  A    between atoms: _94  and  _97
REMARK   42  A    between atoms: _100  and  _102
REMARK   43  A    between atoms: _102  and  _103
REMARK   44  A    between atoms: _102  and  _105
REMARK   45  A    between atoms: _105  and  _106
REMARK   46  A    between atoms: _106  and  _107
REMARK   47  A    between atoms: _109  and  _111
REMARK   48  A    between atoms: _111  and  _112
REMARK   49  A    between atoms: _111  and  _114
REMARK   50  A    between atoms: _114  and  _115
REMARK   51  A    between atoms: _118  and  _120
REMARK   52  A    between atoms: _120  and  _121
REMARK   53  A    between atoms: _123  and  _125
REMARK   54  A    between atoms: _125  and  _126
REMARK   55  A    between atoms: _128  and  _130
REMARK   56  A    between atoms: _130  and  _131
REMARK   57  A    between atoms: _130  and  _133
REMARK   58  A    between atoms: _133  and  _134
REMARK   59  A    between atoms: _137  and  _139
REMARK   60  A    between atoms: _139  and  _140
REMARK   61  A    between atoms: _142  and  _144
REMARK   62  A    between atoms: _144  and  _145
REMARK   63  A    between atoms: _147  and  _149
REMARK   64  A    between atoms: _149  and  _150
REMARK   65  A    between atoms: _149  and  _152
REMARK   66  A    between atoms: _152  and  _153
REMARK   67  A    between atoms: _156  and  _158
REMARK   68  A    between atoms: _158  and  _159
REMARK   69  A    between atoms: _158  and  _161
REMARK   70  A    between atoms: _161  and  _162
REMARK   71  A    between atoms: _166  and  _167
REMARK   72  A    between atoms: _172  and  _174
REMARK   73  A    between atoms: _174  and  _175
REMARK   74  A    between atoms: _174  and  _177
REMARK   75  A    between atoms: _177  and  _178
REMARK   76  A    between atoms: _182  and  _183
REMARK   77  A    between atoms: _188  and  _190
REMARK   78  A    between atoms: _190  and  _191
REMARK   79  A    between atoms: _190  and  _193
REMARK   80  A    between atoms: _196  and  _198
REMARK   81  A    between atoms: _198  and  _199
REMARK   82  A    between atoms: _198  and  _201
REMARK   83  A    between atoms: _201  and  _202
REMARK   84  A    between atoms: _207  and  _209
REMARK   85  A    between atoms: _209  and  _210
REMARK   86  A    between atoms: _209  and  _212
REMARK   87  A    between atoms: _212  and  _213
REMARK   88  A    between atoms: _216  and  _218
REMARK   89  A    between atoms: _218  and  _219
REMARK   90  A    between atoms: _218  and  _221
REMARK   91  A    between atoms: _221  and  _222
REMARK   92  A    between atoms: _225  and  _227
REMARK   93  A    between atoms: _227  and  _228
REMARK   94  A    between atoms: _230  and  _232
REMARK   95  A    between atoms: _232  and  _233
REMARK   96  A    between atoms: _232  and  _235
REMARK   97  A    between atoms: _235  and  _236
REMARK   98  A    between atoms: _236  and  _237
REMARK   99  A    between atoms: _237  and  _238
REMARK  100  A    between atoms: _247  and  _249
REMARK  101  A    between atoms: _249  and  _250
REMARK  102  A    between atoms: _249  and  _252
REMARK  103  A    between atoms: _252  and  _253
REMARK  104  A    between atoms: _258  and  _260
REMARK  105  A    between atoms: _260  and  _261
REMARK  106  A    between atoms: _260  and  _263
REMARK  107  A    between atoms: _263  and  _264
REMARK  108  A    between atoms: _264  and  _265
REMARK  109  A    between atoms: _265  and  _266
REMARK  110  A    between atoms: _275  and  _277
REMARK  111  A    between atoms: _277  and  _278
REMARK  112  A    between atoms: _277  and  _280
REMARK  113  A    between atoms: _280  and  _281
REMARK  114  A    between atoms: _284  and  _286
REMARK  115  A    between atoms: _286  and  _287
REMARK  116  A    between atoms: _286  and  _289
REMARK  117  A    between atoms: _289  and  _290
REMARK  118  A    between atoms: _293  and  _295
REMARK  119  A    between atoms: _295  and  _296
REMARK  120  A    between atoms: _295  and  _298
REMARK  121  A    between atoms: _298  and  _299
REMARK  122  A    between atoms: _302  and  _304
REMARK  123  A    between atoms: _304  and  _305
REMARK  124  A    between atoms: _304  and  _307
REMARK  125  A    between atoms: _307  and  _308
REMARK  126  A    between atoms: _311  and  _313
REMARK  127  A    between atoms: _313  and  _314
REMARK  128  A    between atoms: _313  and  _316
REMARK  129  A    between atoms: _316  and  _317
REMARK  130  A    between atoms: _320  and  _322
REMARK  131  A    between atoms: _322  and  _323
REMARK  132  A    between atoms: _325  and  _327
REMARK  133  A    between atoms: _327  and  _328
REMARK  134  A    between atoms: _331  and  _333
REMARK  135  A    between atoms: _333  and  _334
REMARK  136  A    between atoms: _333  and  _336
REMARK  137  A    between atoms: _336  and  _337
REMARK  138  A    between atoms: _340  and  _342
REMARK  139  A    between atoms: _342  and  _343
REMARK  140  A    between atoms: _342  and  _345
REMARK  141  A    between atoms: _345  and  _346
REMARK  142  A    between atoms: _349  and  _351
REMARK  143  A    between atoms: _351  and  _352
REMARK  144  A    between atoms: _351  and  _354
REMARK  145  A    between atoms: _354  and  _355
REMARK  146  A    between atoms: _358  and  _360
REMARK  147  A    between atoms: _360  and  _361
REMARK  148  A    between atoms: _360  and  _363
REMARK  149  A    between atoms: _366  and  _368
REMARK  150  A    between atoms: _368  and  _369
REMARK  151  A    between atoms: _368  and  _371
REMARK  152  A    between atoms: _371  and  _372
REMARK  153  A    between atoms: _372  and  _373
REMARK  154  A    between atoms: _375  and  _377
REMARK  155  A    between atoms: _377  and  _378
REMARK  156  A    between atoms: _377  and  _380
REMARK  157  A    between atoms: _380  and  _381
REMARK  158  A    between atoms: _384  and  _386
REMARK  159  A    between atoms: _386  and  _387
REMARK  160  A    between atoms: _389  and  _391
REMARK  161  A    between atoms: _391  and  _392
REMARK  162  A    between atoms: _394  and  _396
REMARK  163  A    between atoms: _396  and  _397
REMARK  164  A    between atoms: _396  and  _399
REMARK  165  A    between atoms: _399  and  _400
REMARK  166  A    between atoms: _403  and  _405
REMARK  167  A    between atoms: _405  and  _406
REMARK  168  A    between atoms: _408  and  _410
REMARK  169  A    between atoms: _410  and  _411
REMARK  170  A    between atoms: _413  and  _415
REMARK  171  A    between atoms: _415  and  _416
REMARK  172  A    between atoms: _415  and  _418
REMARK  173  A    between atoms: _418  and  _419
REMARK  174  A    between atoms: _425  and  _427
REMARK  175  A    between atoms: _427  and  _428
REMARK  176  A    between atoms: _427  and  _430
REMARK  177  A    between atoms: _430  and  _431
REMARK  178  A    between atoms: _434  and  _436
REMARK  179  A    between atoms: _436  and  _437
REMARK  180  A    between atoms: _436  and  _439
REMARK  181  A    between atoms: _442  and  _444
REMARK  182  A    between atoms: _444  and  _445
REMARK  183  A    between atoms: _444  and  _447
REMARK  184  A    between atoms: _447  and  _448
REMARK  185  A    between atoms: _451  and  _453
REMARK  186  A    between atoms: _453  and  _454
REMARK  187  A    between atoms: _453  and  _456
REMARK  188  A    between atoms: _456  and  _457
REMARK  189  A    between atoms: _461  and  _462
REMARK  190  A    between atoms: _467  and  _469
REMARK  191  A    between atoms: _469  and  _470
REMARK  192  A    between atoms: _469  and  _472
REMARK  193  A    between atoms: _475  and  _477
REMARK  194  A    between atoms: _477  and  _478
REMARK  195  A    between atoms: _477  and  _480
REMARK  196  A    between atoms: _480  and  _481
REMARK  197  A    between atoms: _486  and  _488
REMARK  198  A    between atoms: _488  and  _489
REMARK  199  A    between atoms: _488  and  _491
REMARK  200  A    between atoms: _491  and  _492
REMARK  201  A    between atoms: _495  and  _497
REMARK  202  A    between atoms: _497  and  _498
REMARK  203  A    between atoms: _497  and  _500
REMARK  204  A    between atoms: _500  and  _501
REMARK  205  A    between atoms: _504  and  _506
REMARK  206  A    between atoms: _506  and  _507
REMARK  207  A    between atoms: _509  and  _511
REMARK  208  A    between atoms: _511  and  _512
REMARK  209  A    between atoms: _511  and  _514
REMARK  210  A    between atoms: _514  and  _515
REMARK  211  A    between atoms: _515  and  _516
REMARK  212  A    between atoms: _516  and  _517
REMARK                            x       y       z     vdW  Elec       q    Type
REMARK                         _______ _______ _______ _____ _____    ______ ____
ROOT
ATOM      1  CA  LEU A   1      12.085  10.781  17.092  0.00  0.00    +0.133 C 
ENDROOT
BRANCH   1   2
ATOM      2  N   LEU A   1      10.710  11.097  17.482  0.00  0.00    -0.239 NA
ATOM      3  H   LEU A   1      10.226  11.907  17.043  0.00  0.00    +0.142 HD
ENDBRANCH   1   2
BRANCH   1   4
ATOM      4  C   LEU A   1      13.073  11.426  18.012  0.00  0.00    +0.224 C 
ATOM      5  O   LEU A   1      12.935  12.620  18.255  0.00  0.00    -0.287 OA
ENDBRANCH   1   4
BRANCH   1   6
ATOM      6  CB  LEU A   1      12.323  11.268  15.661  0.00  0.00    +0.025 C 
BRANCH   6   7
ATOM      7  CG  LEU A   1      11.492  10.484  14.627  0.00  0.00    +0.002 C 
ATOM      8  CD2 LEU A   1      12.061   9.065  14.411  0.00  0.00    +0.000 C 
ATOM      9  CD1 LEU A   1      11.490  11.285  13.300  0.00  0.00    +0.000 C 
ENDBRANCH   6   7
ENDBRANCH   1   6
TORSDOF 4
REMARK  Name = ../refined-set-2016/1ohr/1ohr_pocket.pdb
REMARK  212 active torsions:
REMARK  status: ('A' for Active; 'I' for Inactive)
REMARK    1  A    between atoms: _1  and  _3
REMARK    2  A    between atoms: _3  and  _4
REMARK    3  A    between atoms: _3  and  _6
REMARK    4  A    between atoms: _6  and  _7
REMARK    5  A    between atoms: _7  and  _8
REMARK    6  A    between atoms: _8  and  _9
REMARK    7  A    between atoms: _18  and  _20
REMARK    8  A    between atoms: _20  and  _21
REMARK    9  A    between atoms: _20  and  _23
REMARK   10  A    between atoms: _23  and  _24
REMARK   11  A    between atoms: _27  and  _29
REMARK   12  A    between atoms: _29  and  _30
REMARK   13  A    between atoms: _29  and  _32
REMARK   14  A    between atoms: _32  and  _33
REMARK   15  A    between atoms: _36  and  _38
REMARK   16  A    between atoms: _38  and  _39
REMARK   17  A    between atoms: _38  and  _41
REMARK   18  A    between atoms: _41  and  _42
REMARK   19  A    between atoms: _45  and  _47
REMARK   20  A    between atoms: _47  and  _48
REMARK   21  A    between atoms: _47  and  _50
REMARK   22  A    between atoms: _50  and  _51
REMARK   23  A    between atoms: _54  and  _56
REMARK   24  A    between atoms: _56  and  _57
REMARK   25  A    between atoms: _59  and  _61
REMARK   26  A    between atoms: _61  and  _62
REMARK   27  A    between atoms: _65  and  _67
REMARK   28  A    between atoms: _67  and  _68
REMARK   29  A    between atoms: _67  and  _70
REMARK   30  A    between atoms: _70  and  _71
REMARK   31  A    between atoms: _74  and  _76
REMARK   32  A    between atoms: _76  and  _77
REMARK   33  A    between atoms: _76  and  _79
REMARK   34  A    between atoms: _79  and  _80
REMARK   35  A    between atoms: _83  and  _85
REMARK   36  A    between atoms: _85  and  _86
REMARK   37  A    between atoms: _85  and  _88
REMARK   38  A    between atoms: _88  and  _89
REMARK   39  A    between atoms: _92  and  _94
REMARK   40  A    between atoms: _94  and  _95
REMARK   41  A    between atoms: _94  and  _97
REMARK   42  A    between atoms: _100  and  _102
REMARK   43  A    between atoms: _102  and  _103
REMARK   44  A    between atoms: _102  and  _105
REMARK   45  A    between atoms: _105  and  _106
REMARK   46  A    between atoms: _106  and  _107
REMARK   47  A    between atoms: _109  and  _111
REMARK   48  A    between atoms: _111  and  _112
REMARK   49  A    between atoms: _111  and  _114
REMARK   50  A    between atoms: _114  and  _115
REMARK   51  A    between atoms: _118  and  _120
REMARK   52  A    between atoms: _120  and  _121
REMARK   53  A    between atoms: _123  and  _125
REMARK   54  A    between atoms: _125  and  _126
REMARK   55  A    between atoms: _128  and  _130
REMARK   56  A    between atoms: _130  and  _131
REMARK   57  A    between atoms: _130  and  _133
REMARK   58  A    between atoms: _133  and  _134
REMARK   59  A    between atoms: _137  and  _139
REMARK   60  A    between atoms: _139  and  _140
REMARK   61  A    between atoms: _142  and  _144
REMARK   62  A    between atoms: _144  and  _145
REMARK   63  A    between atoms: _147  and  _149
REMARK   64  A    between atoms: _149  and  _150
REMARK   65  A    between atoms: _149  and  _152
REMARK   66  A    between atoms: _152  and  _153
REMARK   67  A    between atoms: _156  and  _158
REMARK   68  A    between atoms: _158  and  _159
REMARK   69  A    between atoms: _158  and  _161
REMARK   70  A    between atoms: _161  and  _162
REMARK   71  A    between atoms: _166  and  _167
REMARK   72  A    between atoms: _172  and  _174
REMARK   73  A    between atoms: _174  and  _175
REMARK   74  A    between atoms: _174  and  _177
REMARK   75  A    between atoms: _177  and  _178
REMARK   76  A    between atoms: _182  and  _183
REMARK   77  A    between atoms: _188  and  _190
REMARK   78  A    between atoms: _190  and  _191
REMARK   79  A    between atoms: _190  and  _193
REMARK   80  A    between atoms: _196  and  _198
REMARK   81  A    between atoms: _198  and  _199
REMARK   82  A    between atoms: _198  and  _201
REMARK   83  A    between atoms: _201  and  _202
REMARK   84  A    between atoms: _207  and  _209
REMARK   85  A    between atoms: _209  and  _210
REMARK   86  A    between atoms: _209  and  _212
REMARK   87  A    between atoms: _212  and  _213
REMARK   88  A    between atoms: _216  and  _218
REMARK   89  A    between atoms: _218  and  _219
REMARK   90  A    between atoms: _218  and  _221
REMARK   91  A    between atoms: _221  and  _222
REMARK   92  A    between atoms: _225  and  _227
REMARK   93  A    between atoms: _227  and  _228
REMARK   94  A    between atoms: _230  and  _232
REMARK   95  A    between atoms: _232  and  _233
REMARK   96  A    between atoms: _232  and  _235
REMARK   97  A    between atoms: _235  and  _236
REMARK   98  A    between atoms: _236  and  _237
REMARK   99  A    between atoms: _237  and  _238
REMARK  100  A    between atoms: _247  and  _249
REMARK  101  A    between atoms: _249  and  _250
REMARK  102  A    between atoms: _249  and  _252
REMARK  103  A    between atoms: _252  and  _253
REMARK  104  A    between atoms: _258  and  _260
REMARK  105  A    between atoms: _260  and  _261
REMARK  106  A    between atoms: _260  and  _263
REMARK  107  A    between atoms: _263  and  _264
REMARK  108  A    between atoms: _264  and  _265
REMARK  109  A    between atoms: _265  and  _266
REMARK  110  A    between atoms: _275  and  _277
REMARK  111  A    between atoms: _277  and  _278
REMARK  112  A    between atoms: _277  and  _280
REMARK  113  A    between atoms: _280  and  _281
REMARK  114  A    between atoms: _284  and  _286
REMARK  115  A    between atoms: _286  and  _287
REMARK  116  A    between atoms: _286  and  _289
REMARK  117  A    between atoms: _289  and  _290
REMARK  118  A    between atoms: _293  and  _295
REMARK  119  A    between atoms: _295  and  _296
REMARK  120  A    between atoms: _295  and  _298
REMARK  121  A    between atoms: _298  and  _299
REMARK  122  A    between atoms: _302  and  _304
REMARK  123  A    between atoms: _304  and  _305
REMARK  124  A    between atoms: _304  and  _307
REMARK  125  A    between atoms: _307  and  _308
REMARK  126  A    between atoms: _311  and  _313
REMARK  127  A    between atoms: _313  and  _314
REMARK  128  A    between atoms: _313  and  _316
REMARK  129  A    between atoms: _316  and  _317
REMARK  130  A    between atoms: _320  and  _322
REMARK  131  A    between atoms: _322  and  _323
REMARK  132  A    between atoms: _325  and  _327
REMARK  133  A    between atoms: _327  and  _328
REMARK  134  A    between atoms: _331  and  _333
REMARK  135  A    between atoms: _333  and  _334
REMARK  136  A    between atoms: _333  and  _336
REMARK  137  A    between atoms: _336  and  _337
REMARK  138  A    between atoms: _340  and  _342
REMARK  139  A    between atoms: _342  and  _343
REMARK  140  A    between atoms: _342  and  _345
REMARK  141  A    between atoms: _345  and  _346
REMARK  142  A    between atoms: _349  and  _351
REMARK  143  A    between atoms: _351  and  _352
REMARK  144  A    between atoms: _351  and  _354
REMARK  145  A    between atoms: _354  and  _355
REMARK  146  A    between atoms: _358  and  _360
REMARK  147  A    between atoms: _360  and  _361
REMARK  148  A    between atoms: _360  and  _363
REMARK  149  A    between atoms: _366  and  _368
REMARK  150  A    between atoms: _368  and  _369
REMARK  151  A    between atoms: _368  and  _371
REMARK  152  A    between atoms: _371  and  _372
REMARK  153  A    between atoms: _372  and  _373
REMARK  154  A    between atoms: _375  and  _377
REMARK  155  A    between atoms: _377  and  _378
REMARK  156  A    between atoms: _377  and  _380
REMARK  157  A    between atoms: _380  and  _381
REMARK  158  A    between atoms: _384  and  _386
REMARK  159  A    between atoms: _386  and  _387
REMARK  160  A    between atoms: _389  and  _391
REMARK  161  A    between atoms: _391  and  _392
REMARK  162  A    between atoms: _394  and  _396
REMARK  163  A    between atoms: _396  and  _397
REMARK  164  A    between atoms: _396  and  _399
REMARK  165  A    between atoms: _399  and  _400
REMARK  166  A    between atoms: _403  and  _405
REMARK  167  A    between atoms: _405  and  _406
REMARK  168  A    between atoms: _408  and  _410
REMARK  169  A    between atoms: _410  and  _411
REMARK  170  A    between atoms: _413  and  _415
REMARK  171  A    between atoms: _415  and  _416
REMARK  172  A    between atoms: _415  and  _418
REMARK  173  A    between atoms: _418  and  _419
REMARK  174  A    between atoms: _425  and  _427
REMARK  175  A    between atoms: _427  and  _428
REMARK  176  A    between atoms: _427  and  _430
REMARK  177  A    between atoms: _430  and  _431
REMARK  178  A    between atoms: _434  and  _436
REMARK  179  A    between atoms: _436  and  _437
REMARK  180  A    between atoms: _436  and  _439
REMARK  181  A    between atoms: _442  and  _444
REMARK  182  A    between atoms: _444  and  _445
REMARK  183  A    between atoms: _444  and  _447
REMARK  184  A    between atoms: _447  and  _448
REMARK  185  A    between atoms: _451  and  _453
REMARK  186  A    between atoms: _453  and  _454
REMARK  187  A    between atoms: _453  and  _456
REMARK  188  A    between atoms: _456  and  _457
REMARK  189  A    between atoms: _461  and  _462
REMARK  190  A    between atoms: _467  and  _469
REMARK  191  A    between atoms: _469  and  _470
REMARK  192  A    between atoms: _469  and  _472
REMARK  193  A    between atoms: _475  and  _477
REMARK  194  A    between atoms: _477  and  _478
REMARK  195  A    between atoms: _477  and  _480
REMARK  196  A    between atoms: _480  and  _481
REMARK  197  A    between atoms: _486  and  _488
REMARK  198  A    between atoms: _488  and  _489
REMARK  199  A    between atoms: _488  and  _491
REMARK  200  A    between atoms: _491  and  _492
REMARK  201  A    between atoms: _495  and  _497
REMARK  202  A    between atoms: _497  and  _498
REMARK  203  A    between atoms: _497  and  _500
REMARK  204  A    between atoms: _500  and  _501
REMARK  205  A    between atoms: _504  and  _506
REMARK  206  A    between atoms: _506  and  _507
REMARK  207  A    between atoms: _509  and  _511
REMARK  208  A    between atoms: _511  and  _512
REMARK  209  A    between atoms: _511  and  _514
REMARK  210  A    between atoms: _514  and  _515
REMARK  211  A    between atoms: _515  and  _516
REMARK  212  A    between atoms: _516  and  _517
REMARK                            x       y       z     vdW  Elec       q    Type
REMARK                         _______ _______ _______ _____ _____    ______ ____
ROOT
ATOM      1  C   GLY A   5       5.648  -1.976  20.196  0.00  0.00    +0.243 C 
ATOM      2  N   ALA A   6       6.921  -1.567  20.143  0.00  0.00    -0.297 N 
ATOM      3  H   ALA A   6       7.137  -0.569  20.339  0.00  0.00    +0.150 HD
ATOM      4  O   GLY A   5       5.309  -3.107  19.809  0.00  0.00    -0.273 OA
ENDROOT
BRANCH   2   5
ATOM      5  CA  ALA A   6       8.017  -2.475  19.819  0.00  0.00    +0.149 C 
ATOM      6  CB  ALA A   6       9.179  -1.713  19.168  0.00  0.00    +0.031 C 
BRANCH   5   7
ATOM      7  C   ALA A   6       8.551  -3.135  21.085  0.00  0.00    +0.241 C 
ATOM      8  O   ALA A   6       8.930  -2.470  22.042  0.00  0.00    -0.273 OA
ATOM      9  N   ASP A   7       8.577  -4.452  21.113  0.00  0.00    -0.297 N 
ATOM     10  H   ASP A   7       8.189  -4.989  20.312  0.00  0.00    +0.150 HD
BRANCH   9  11
ATOM     11  CA  ASP A   7       9.140  -5.164  22.246  0.00  0.00    +0.160 C 
BRANCH  11  12
ATOM     12  C   ASP A   7      10.641  -5.115  22.187  0.00  0.00    +0.241 C 
ATOM     13  O   ASP A   7      11.326  -5.283  23.191  0.00  0.00    -0.273 OA
ATOM     14  N   ASP A   8      11.161  -5.035  20.980  0.00  0.00    -0.297 N 
ATOM     15  H   ASP A   8      10.509  -4.965  20.173  0.00  0.00    +0.150 HD
BRANCH  14  16
ATOM     16  CA  ASP A   8      12.584  -5.038  20.705  0.00  0.00    +0.160 C 
BRANCH  16  17
ATOM     17  C   ASP A   8      13.090  -3.768  20.127  0.00  0.00    +0.241 C 
ATOM     18  N   THR A   9      14.413  -3.600  20.091  0.00  0.00    -0.295 N 
ATOM     19  H   THR A   9      15.023  -4.325  20.520  0.00  0.00    +0.150 HD
ATOM     20  O   ASP A   8      12.270  -2.990  19.633  0.00  0.00    -0.273 OA
BRANCH  18  21
ATOM     21  CA  THR A   9      15.032  -2.440  19.473  0.00  0.00    +0.176 C 
BRANCH  21  22
ATOM     22  C   THR A   9      15.551  -2.904  18.126  0.00  0.00    +0.243 C 
ATOM     23  O   THR A   9      16.279  -3.892  18.030  0.00  0.00    -0.273 OA
ATOM     24  N   VAL A  10      15.217  -2.184  17.065  0.00  0.00    -0.298 N 
ATOM     25  H   VAL A  10      14.620  -1.339  17.173  0.00  0.00    +0.150 HD
BRANCH  24  26
ATOM     26  CA  VAL A  10      15.694  -2.586  15.738  0.00  0.00    +0.137 C 
BRANCH  26  27
ATOM     27  CB  VAL A  10      14.483  -2.978  14.871  0.00  0.00    +0.026 C 
ATOM     28  CG2 VAL A  10      13.561  -3.914  15.659  0.00  0.00    +0.002 C 
ATOM     29  CG1 VAL A  10      14.993  -3.597  13.542  0.00  0.00    +0.002 C 
ENDBRANCH  26  27
BRANCH  26  30
ATOM     30  C   VAL A  10      16.443  -1.431  15.100  0.00  0.00    +0.227 C 
ATOM     31  O   VAL A  10      15.884  -0.337  15.000  0.00  0.00    -0.286 OA
ENDBRANCH  26  30
ENDBRANCH  24  26
ENDBRANCH  21  22
BRANCH  21  32
ATOM     32  CB  THR A   9      16.171  -1.916  20.378  0.00  0.00    +0.137 C 
ATOM     33  CG2 THR A   9      16.985  -0.771  19.775  0.00  0.00    +0.034 C 
BRANCH  32  34
ATOM     34  OG1 THR A   9      15.521  -1.468  21.564  0.00  0.00    -0.382 OA
ATOM     35  HG1 THR A   9      15.040  -2.226  21.982  0.00  0.00    +0.210 HD
ENDBRANCH  32  34
ENDBRANCH  21  32
ENDBRANCH  18  21
ENDBRANCH  16  17
BRANCH  16  36
ATOM     36  CB  ASP A   8      12.929  -6.114  19.673  0.00  0.00    +0.143 C 
BRANCH  36  37
ATOM     37  CG  ASP A   8      12.466  -7.505  20.052  0.00  0.00    +0.367 C 
ATOM     38  OD2 ASP A   8      12.988  -8.028  21.028  0.00  0.00    -0.246 OA
ATOM     39  OD1 ASP A   8      11.602  -8.046  19.357  0.00  0.00    -0.246 OA
ENDBRANCH  36  37
ENDBRANCH  16  36
ENDBRANCH  14  16
ENDBRANCH  11  12
BRANCH  11  40
ATOM     40  CB  ASP A   7       8.814  -6.643  22.241  0.00  0.00    +0.143 C 
BRANCH  40  41
ATOM     41  CG  ASP A   7       7.348  -6.949  22.314  0.00  0.00    +0.367 C 
ATOM     42  OD2 ASP A   7       6.565  -6.235  22.945  0.00  0.00    -0.246 OA
ATOM     43  OD1 ASP A   7       6.997  -7.978  21.769  0.00  0.00    -0.246 OA
ENDBRANCH  40  41
ENDBRANCH  11  40
ENDBRANCH   9  11
ENDBRANCH   5   7
ENDBRANCH   2   5
BRANCH   1  44
ATOM     44  CA  GLY A   5       4.620  -0.883  20.577  0.00  0.00    +0.176 C 
BRANCH  44  47
ATOM     45  C   THR A   4       5.515   0.294  22.588  0.00  0.00    +0.243 C 
ATOM     46  O   THR A   4       5.174  -0.601  23.343  0.00  0.00    -0.273 OA
ATOM     47  N   GLY A   5       5.246   0.283  21.273  0.00  0.00    -0.295 N 
ATOM     48  H   GLY A   5       5.484   1.125  20.712  0.00  0.00    +0.150 HD
BRANCH  45  49
ATOM     49  CA  THR A   4       6.120   1.568  23.172  0.00  0.00    +0.176 C 
BRANCH  49  51
ATOM     50  C   ASP A   3       7.719   2.033  21.433  0.00  0.00    +0.241 C 
ATOM     51  N   THR A   4       6.664   2.415  22.123  0.00  0.00    -0.295 N 
ATOM     52  H   THR A   4       6.216   3.330  21.916  0.00  0.00    +0.150 HD
ATOM     53  O   ASP A   3       8.220   0.922  21.569  0.00  0.00    -0.273 OA
BRANCH  50  54
ATOM     54  CA  ASP A   3       8.210   2.970  20.353  0.00  0.00    +0.160 C 
BRANCH  54  56
ATOM     55  C   LEU A   2       9.317   5.137  20.560  0.00  0.00    +0.241 C 
ATOM     56  N   ASP A   3       9.362   3.813  20.651  0.00  0.00    -0.297 N 
ATOM     57  H   ASP A   3      10.251   3.361  20.945  0.00  0.00    +0.150 HD
ATOM     58  O   LEU A   2       8.277   5.776  20.371  0.00  0.00    -0.273 OA
BRANCH  55  59
ATOM     59  CA  LEU A   2      10.633   5.827  20.791  0.00  0.00    +0.149 C 
BRANCH  59  61
ATOM     60  C   LEU A   1      11.519   5.755  18.463  0.00  0.00    +0.238 C 
ATOM     61  N   LEU A   2      10.950   6.450  19.486  0.00  0.00    -0.297 N 
ATOM     62  H   LEU A   2      10.730   7.457  19.345  0.00  0.00    +0.150 HD
ATOM     63  O   LEU A   1      11.871   4.577  18.594  0.00  0.00    -0.274 OA
BRANCH  60  64
ATOM     64  CA  LEU A   1      11.785   6.405  17.121  0.00  0.00    +0.145 C 
BRANCH  64  65
ATOM     65  N   LEU A   1      13.168   6.321  16.702  0.00  0.00    -0.238 NA
ATOM     66  H   LEU A   1      13.433   5.507  16.111  0.00  0.00    +0.142 HD
ENDBRANCH  64  65
BRANCH  64  67
ATOM     67  CB  LEU A   1      11.002   5.743  15.983  0.00  0.00    +0.026 C 
BRANCH  67  68
ATOM     68  CG  LEU A   1       9.506   5.672  16.210  0.00  0.00    +0.002 C 
ATOM     69  CD2 LEU A   1       8.835   7.025  15.968  0.00  0.00    +0.000 C 
ATOM     70  CD1 LEU A   1       8.949   4.625  15.232  0.00  0.00    +0.000 C 
ENDBRANCH  67  68
ENDBRANCH  64  67
ENDBRANCH  60  64
ENDBRANCH  59  61
BRANCH  59  71
ATOM     71  CB  LEU A   2      10.500   6.890  21.899  0.00  0.00    +0.029 C 
BRANCH  71  72
ATOM     72  CG  LEU A   2      11.766   7.774  21.944  0.00  0.00    +0.002 C 
ATOM     73  CD2 LEU A   2      11.478   8.841  22.999  0.00  0.00    +0.000 C 
ATOM     74  CD1 LEU A   2      13.076   6.947  22.185  0.00  0.00    +0.000 C 
ENDBRANCH  71  72
ENDBRANCH  59  71
ENDBRANCH  55  59
ENDBRANCH  54  56
BRANCH  54  75
ATOM     75  CB  ASP A   3       8.590   2.175  19.082  0.00  0.00    +0.143 C 
BRANCH  75  76
ATOM     76  CG  ASP A   3       7.416   1.477  18.413  0.00  0.00    +0.367 C 
ATOM     77  OD2 ASP A   3       6.320   1.443  18.976  0.00  0.00    -0.246 OA
ATOM     78  OD1 ASP A   3       7.651   0.994  17.310  0.00  0.00    -0.246 OA
ENDBRANCH  75  76
ENDBRANCH  54  75
ENDBRANCH  50  54
ENDBRANCH  49  51
BRANCH  49  79
ATOM     79  CB  THR A   4       5.070   2.386  23.927  0.00  0.00    +0.137 C 
ATOM     80  CG2 THR A   4       5.739   3.572  24.615  0.00  0.00    +0.034 C 
BRANCH  79  81
ATOM     81  OG1 THR A   4       4.044   2.802  23.002  0.00  0.00    -0.382 OA
ATOM     82  HG1 THR A   4       3.620   2.003  22.600  0.00  0.00    +0.210 HD
ENDBRANCH  79  81
ENDBRANCH  49  79
ENDBRANCH  45  49
ENDBRANCH  44  47
ENDBRANCH   1  44
TORSDOF 35
REMARK  Name = ../refined-set-2016/1ohr/1ohr_pocket.pdb
REMARK  212 active torsions:
REMARK  status: ('A' for Active; 'I' for Inactive)
REMARK    1  A    between atoms: _1  and  _3
REMARK    2  A    between atoms: _3  and  _4
REMARK    3  A    between atoms: _3  and  _6
REMARK    4  A    between atoms: _6  and  _7
REMARK    5  A    between atoms: _7  and  _8
REMARK    6  A    between atoms: _8  and  _9
REMARK    7  A    between atoms: _18  and  _20
REMARK    8  A    between atoms: _20  and  _21
REMARK    9  A    between atoms: _20  and  _23
REMARK   10  A    between atoms: _23  and  _24
REMARK   11  A    between atoms: _27  and  _29
REMARK   12  A    between atoms: _29  and  _30
REMARK   13  A    between atoms: _29  and  _32
REMARK   14  A    between atoms: _32  and  _33
REMARK   15  A    between atoms: _36  and  _38
REMARK   16  A    between atoms: _38  and  _39
REMARK   17  A    between atoms: _38  and  _41
REMARK   18  A    between atoms: _41  and  _42
REMARK   19  A    between atoms: _45  and  _47
REMARK   20  A    between atoms: _47  and  _48
REMARK   21  A    between atoms: _47  and  _50
REMARK   22  A    between atoms: _50  and  _51
REMARK   23  A    between atoms: _54  and  _56
REMARK   24  A    between atoms: _56  and  _57
REMARK   25  A    between atoms: _59  and  _61
REMARK   26  A    between atoms: _61  and  _62
REMARK   27  A    between atoms: _65  and  _67
REMARK   28  A    between atoms: _67  and  _68
REMARK   29  A    between atoms: _67  and  _70
REMARK   30  A    between atoms: _70  and  _71
REMARK   31  A    between atoms: _74  and  _76
REMARK   32  A    between atoms: _76  and  _77
REMARK   33  A    between atoms: _76  and  _79
REMARK   34  A    between atoms: _79  and  _80
REMARK   35  A    between atoms: _83  and  _85
REMARK   36  A    between atoms: _85  and  _86
REMARK   37  A    between atoms: _85  and  _88
REMARK   38  A    between atoms: _88  and  _89
REMARK   39  A    between atoms: _92  and  _94
REMARK   40  A    between atoms: _94  and  _95
REMARK   41  A    between atoms: _94  and  _97
REMARK   42  A    between atoms: _100  and  _102
REMARK   43  A    between atoms: _102  and  _103
REMARK   44  A    between atoms: _102  and  _105
REMARK   45  A    between atoms: _105  and  _106
REMARK   46  A    between atoms: _106  and  _107
REMARK   47  A    between atoms: _109  and  _111
REMARK   48  A    between atoms: _111  and  _112
REMARK   49  A    between atoms: _111  and  _114
REMARK   50  A    between atoms: _114  and  _115
REMARK   51  A    between atoms: _118  and  _120
REMARK   52  A    between atoms: _120  and  _121
REMARK   53  A    between atoms: _123  and  _125
REMARK   54  A    between atoms: _125  and  _126
REMARK   55  A    between atoms: _128  and  _130
REMARK   56  A    between atoms: _130  and  _131
REMARK   57  A    between atoms: _130  and  _133
REMARK   58  A    between atoms: _133  and  _134
REMARK   59  A    between atoms: _137  and  _139
REMARK   60  A    between atoms: _139  and  _140
REMARK   61  A    between atoms: _142  and  _144
REMARK   62  A    between atoms: _144  and  _145
REMARK   63  A    between atoms: _147  and  _149
REMARK   64  A    between atoms: _149  and  _150
REMARK   65  A    between atoms: _149  and  _152
REMARK   66  A    between atoms: _152  and  _153
REMARK   67  A    between atoms: _156  and  _158
REMARK   68  A    between atoms: _158  and  _159
REMARK   69  A    between atoms: _158  and  _161
REMARK   70  A    between atoms: _161  and  _162
REMARK   71  A    between atoms: _166  and  _167
REMARK   72  A    between atoms: _172  and  _174
REMARK   73  A    between atoms: _174  and  _175
REMARK   74  A    between atoms: _174  and  _177
REMARK   75  A    between atoms: _177  and  _178
REMARK   76  A    between atoms: _182  and  _183
REMARK   77  A    between atoms: _188  and  _190
REMARK   78  A    between atoms: _190  and  _191
REMARK   79  A    between atoms: _190  and  _193
REMARK   80  A    between atoms: _196  and  _198
REMARK   81  A    between atoms: _198  and  _199
REMARK   82  A    between atoms: _198  and  _201
REMARK   83  A    between atoms: _201  and  _202
REMARK   84  A    between atoms: _207  and  _209
REMARK   85  A    between atoms: _209  and  _210
REMARK   86  A    between atoms: _209  and  _212
REMARK   87  A    between atoms: _212  and  _213
REMARK   88  A    between atoms: _216  and  _218
REMARK   89  A    between atoms: _218  and  _219
REMARK   90  A    between atoms: _218  and  _221
REMARK   91  A    between atoms: _221  and  _222
REMARK   92  A    between atoms: _225  and  _227
REMARK   93  A    between atoms: _227  and  _228
REMARK   94  A    between atoms: _230  and  _232
REMARK   95  A    between atoms: _232  and  _233
REMARK   96  A    between atoms: _232  and  _235
REMARK   97  A    between atoms: _235  and  _236
REMARK   98  A    between atoms: _236  and  _237
REMARK   99  A    between atoms: _237  and  _238
REMARK  100  A    between atoms: _247  and  _249
REMARK  101  A    between atoms: _249  and  _250
REMARK  102  A    between atoms: _249  and  _252
REMARK  103  A    between atoms: _252  and  _253
REMARK  104  A    between atoms: _258  and  _260
REMARK  105  A    between atoms: _260  and  _261
REMARK  106  A    between atoms: _260  and  _263
REMARK  107  A    between atoms: _263  and  _264
REMARK  108  A    between atoms: _264  and  _265
REMARK  109  A    between atoms: _265  and  _266
REMARK  110  A    between atoms: _275  and  _277
REMARK  111  A    between atoms: _277  and  _278
REMARK  112  A    between atoms: _277  and  _280
REMARK  113  A    between atoms: _280  and  _281
REMARK  114  A    between atoms: _284  and  _286
REMARK  115  A    between atoms: _286  and  _287
REMARK  116  A    between atoms: _286  and  _289
REMARK  117  A    between atoms: _289  and  _290
REMARK  118  A    between atoms: _293  and  _295
REMARK  119  A    between atoms: _295  and  _296
REMARK  120  A    between atoms: _295  and  _298
REMARK  121  A    between atoms: _298  and  _299
REMARK  122  A    between atoms: _302  and  _304
REMARK  123  A    between atoms: _304  and  _305
REMARK  124  A    between atoms: _304  and  _307
REMARK  125  A    between atoms: _307  and  _308
REMARK  126  A    between atoms: _311  and  _313
REMARK  127  A    between atoms: _313  and  _314
REMARK  128  A    between atoms: _313  and  _316
REMARK  129  A    between atoms: _316  and  _317
REMARK  130  A    between atoms: _320  and  _322
REMARK  131  A    between atoms: _322  and  _323
REMARK  132  A    between atoms: _325  and  _327
REMARK  133  A    between atoms: _327  and  _328
REMARK  134  A    between atoms: _331  and  _333
REMARK  135  A    between atoms: _333  and  _334
REMARK  136  A    between atoms: _333  and  _336
REMARK  137  A    between atoms: _336  and  _337
REMARK  138  A    between atoms: _340  and  _342
REMARK  139  A    between atoms: _342  and  _343
REMARK  140  A    between atoms: _342  and  _345
REMARK  141  A    between atoms: _345  and  _346
REMARK  142  A    between atoms: _349  and  _351
REMARK  143  A    between atoms: _351  and  _352
REMARK  144  A    between atoms: _351  and  _354
REMARK  145  A    between atoms: _354  and  _355
REMARK  146  A    between atoms: _358  and  _360
REMARK  147  A    between atoms: _360  and  _361
REMARK  148  A    between atoms: _360  and  _363
REMARK  149  A    between atoms: _366  and  _368
REMARK  150  A    between atoms: _368  and  _369
REMARK  151  A    between atoms: _368  and  _371
REMARK  152  A    between atoms: _371  and  _372
REMARK  153  A    between atoms: _372  and  _373
REMARK  154  A    between atoms: _375  and  _377
REMARK  155  A    between atoms: _377  and  _378
REMARK  156  A    between atoms: _377  and  _380
REMARK  157  A    between atoms: _380  and  _381
REMARK  158  A    between atoms: _384  and  _386
REMARK  159  A    between atoms: _386  and  _387
REMARK  160  A    between atoms: _389  and  _391
REMARK  161  A    between atoms: _391  and  _392
REMARK  162  A    between atoms: _394  and  _396
REMARK  163  A    between atoms: _396  and  _397
REMARK  164  A    between atoms: _396  and  _399
REMARK  165  A    between atoms: _399  and  _400
REMARK  166  A    between atoms: _403  and  _405
REMARK  167  A    between atoms: _405  and  _406
REMARK  168  A    between atoms: _408  and  _410
REMARK  169  A    between atoms: _410  and  _411
REMARK  170  A    between atoms: _413  and  _415
REMARK  171  A    between atoms: _415  and  _416
REMARK  172  A    between atoms: _415  and  _418
REMARK  173  A    between atoms: _418  and  _419
REMARK  174  A    between atoms: _425  and  _427
REMARK  175  A    between atoms: _427  and  _428
REMARK  176  A    between atoms: _427  and  _430
REMARK  177  A    between atoms: _430  and  _431
REMARK  178  A    between atoms: _434  and  _436
REMARK  179  A    between atoms: _436  and  _437
REMARK  180  A    between atoms: _436  and  _439
REMARK  181  A    between atoms: _442  and  _444
REMARK  182  A    between atoms: _444  and  _445
REMARK  183  A    between atoms: _444  and  _447
REMARK  184  A    between atoms: _447  and  _448
REMARK  185  A    between atoms: _451  and  _453
REMARK  186  A    between atoms: _453  and  _454
REMARK  187  A    between atoms: _453  and  _456
REMARK  188  A    between atoms: _456  and  _457
REMARK  189  A    between atoms: _461  and  _462
REMARK  190  A    between atoms: _467  and  _469
REMARK  191  A    between atoms: _469  and  _470
REMARK  192  A    between atoms: _469  and  _472
REMARK  193  A    between atoms: _475  and  _477
REMARK  194  A    between atoms: _477  and  _478
REMARK  195  A    between atoms: _477  and  _480
REMARK  196  A    between atoms: _480  and  _481
REMARK  197  A    between atoms: _486  and  _488
REMARK  198  A    between atoms: _488  and  _489
REMARK  199  A    between atoms: _488  and  _491
REMARK  200  A    between atoms: _491  and  _492
REMARK  201  A    between atoms: _495  and  _497
REMARK  202  A    between atoms: _497  and  _498
REMARK  203  A    between atoms: _497  and  _500
REMARK  204  A    between atoms: _500  and  _501
REMARK  205  A    between atoms: _504  and  _506
REMARK  206  A    between atoms: _506  and  _507
REMARK  207  A    between atoms: _509  and  _511
REMARK  208  A    between atoms: _511  and  _512
REMARK  209  A    between atoms: _511  and  _514
REMARK  210  A    between atoms: _514  and  _515
REMARK  211  A    between atoms: _515  and  _516
REMARK  212  A    between atoms: _516  and  _517
REMARK                            x       y       z     vdW  Elec       q    Type
REMARK                         _______ _______ _______ _____ _____    ______ ____
ROOT
ATOM      1  CA  ILE A   5       2.383  -5.568  10.664  0.00  0.00    +0.149 C 
ENDROOT
BRANCH   1   3
ATOM      2  C   GLY A   4       4.336  -6.666  11.649  0.00  0.00    +0.243 C 
ATOM      3  N   ILE A   5       3.697  -5.555  11.372  0.00  0.00    -0.297 N 
ATOM      4  H   ILE A   5       4.115  -4.645  11.652  0.00  0.00    +0.150 HD
ATOM      5  O   GLY A   4       3.876  -7.766  11.319  0.00  0.00    -0.273 OA
BRANCH   2   6
ATOM      6  CA  GLY A   4       5.672  -6.543  12.367  0.00  0.00    +0.176 C 
BRANCH   6   9
ATOM      7  C   GLY A   3       6.816  -8.525  13.109  0.00  0.00    +0.243 C 
ATOM      8  O   GLY A   3       6.813  -8.172  14.287  0.00  0.00    -0.273 OA
ATOM      9  N   GLY A   4       6.326  -7.812  12.144  0.00  0.00    -0.295 N 
ATOM     10  H   GLY A   4       6.407  -8.168  11.170  0.00  0.00    +0.150 HD
BRANCH   7  11
ATOM     11  CA  GLY A   3       7.421  -9.827  12.667  0.00  0.00    +0.176 C 
BRANCH  11  13
ATOM     12  C   ILE A   2       9.801 -10.208  12.893  0.00  0.00    +0.241 C 
ATOM     13  N   GLY A   3       8.605 -10.189  13.440  0.00  0.00    -0.295 N 
ATOM     14  H   GLY A   3       8.501 -10.437  14.445  0.00  0.00    +0.150 HD
ATOM     15  O   ILE A   2       9.982  -9.913  11.717  0.00  0.00    -0.273 OA
BRANCH  12  16
ATOM     16  CA  ILE A   2      10.957 -10.621  13.767  0.00  0.00    +0.148 C 
BRANCH  16  19
ATOM     17  C   MET A   1      12.266 -12.625  13.275  0.00  0.00    +0.238 C 
ATOM     18  O   MET A   1      11.861 -13.138  14.333  0.00  0.00    -0.274 OA
ATOM     19  N   ILE A   2      11.943 -11.364  12.943  0.00  0.00    -0.297 N 
ATOM     20  H   ILE A   2      12.380 -10.912  12.115  0.00  0.00    +0.150 HD
BRANCH  17  21
ATOM     21  CA  MET A   1      13.260 -13.381  12.398  0.00  0.00    +0.146 C 
BRANCH  21  22
ATOM     22  N   MET A   1      14.336 -13.916  13.245  0.00  0.00    -0.238 NA
ATOM     23  H   MET A   1      14.117 -14.666  13.931  0.00  0.00    +0.142 HD
ENDBRANCH  21  22
BRANCH  21  24
ATOM     24  CB  MET A   1      12.576 -14.524  11.681  0.00  0.00    +0.038 C 
BRANCH  24  25
ATOM     25  CG  MET A   1      13.390 -14.549  10.368  0.00  0.00    +0.060 C 
BRANCH  25  26
ATOM     26  SD  MET A   1      13.008 -15.918   9.363  0.00  0.00    -0.139 S 
ATOM     27  CE  MET A   1      11.360 -15.423   8.810  0.00  0.00    +0.069 C 
ENDBRANCH  25  26
ENDBRANCH  24  25
ENDBRANCH  21  24
ENDBRANCH  17  21
ENDBRANCH  16  19
BRANCH  16  28
ATOM     28  CB  ILE A   2      11.551  -9.355  14.396  0.00  0.00    +0.027 C 
ATOM     29  CG2 ILE A   2      12.284  -9.784  15.682  0.00  0.00    +0.002 C 
BRANCH  28  30
ATOM     30  CG1 ILE A   2      12.398  -8.589  13.362  0.00  0.00    +0.002 C 
ATOM     31  CD1 ILE A   2      12.531  -7.126  13.756  0.00  0.00    +0.000 C 
ENDBRANCH  28  30
ENDBRANCH  16  28
ENDBRANCH  12  16
ENDBRANCH  11  13
ENDBRANCH   7  11
ENDBRANCH   6   9
ENDBRANCH   2   6
ENDBRANCH   1   3
BRANCH   1  32
ATOM     32  C   ILE A   5       2.342  -6.404   9.386  0.00  0.00    +0.241 C 
ATOM     33  O   ILE A   5       1.516  -7.251   9.280  0.00  0.00    -0.273 OA
ATOM     34  N   GLY A   6       3.221  -6.163   8.409  0.00  0.00    -0.295 N 
ATOM     35  H   GLY A   6       3.999  -5.479   8.504  0.00  0.00    +0.150 HD
BRANCH  34  36
ATOM     36  CA  GLY A   6       2.992  -6.950   7.188  0.00  0.00    +0.176 C 
BRANCH  36  37
ATOM     37  C   GLY A   6       3.724  -8.261   7.102  0.00  0.00    +0.243 C 
ATOM     38  N   GLY A   7       4.382  -8.739   8.143  0.00  0.00    -0.295 N 
ATOM     39  H   GLY A   7       4.362  -8.238   9.054  0.00  0.00    +0.150 HD
ATOM     40  O   GLY A   6       3.678  -8.882   6.059  0.00  0.00    -0.273 OA
BRANCH  38  41
ATOM     41  CA  GLY A   7       5.141  -9.985   7.996  0.00  0.00    +0.176 C 
BRANCH  41  42
ATOM     42  C   GLY A   7       6.444  -9.934   8.787  0.00  0.00    +0.243 C 
ATOM     43  O   GLY A   7       6.650  -9.086   9.660  0.00  0.00    -0.273 OA
ATOM     44  N   PHE A   8       7.336 -10.839   8.455  0.00  0.00    -0.297 N 
ATOM     45  H   PHE A   8       7.124 -11.470   7.656  0.00  0.00    +0.150 HD
BRANCH  44  46
ATOM     46  CA  PHE A   8       8.603 -11.004   9.146  0.00  0.00    +0.153 C 
BRANCH  46  47
ATOM     47  C   PHE A   8       9.781 -10.535   8.371  0.00  0.00    +0.241 C 
ATOM     48  N   ILE A   9      10.858 -10.155   9.045  0.00  0.00    -0.298 N 
ATOM     49  H   ILE A   9      10.822 -10.122  10.084  0.00  0.00    +0.150 HD
ATOM     50  O   PHE A   8       9.728 -10.516   7.147  0.00  0.00    -0.273 OA
BRANCH  48  51
ATOM     51  CA  ILE A   9      12.094  -9.781   8.360  0.00  0.00    +0.137 C 
BRANCH  51  52
ATOM     52  CB  ILE A   9      12.377  -8.250   8.314  0.00  0.00    +0.026 C 
ATOM     53  CG2 ILE A   9      11.297  -7.650   7.374  0.00  0.00    +0.002 C 
BRANCH  52  54
ATOM     54  CG1 ILE A   9      12.436  -7.598   9.714  0.00  0.00    +0.002 C 
ATOM     55  CD1 ILE A   9      12.946  -6.146   9.560  0.00  0.00    +0.000 C 
ENDBRANCH  52  54
ENDBRANCH  51  52
BRANCH  51  56
ATOM     56  C   ILE A   9      13.194 -10.435   9.149  0.00  0.00    +0.227 C 
ATOM     57  O   ILE A   9      13.053 -10.739  10.348  0.00  0.00    -0.286 OA
ENDBRANCH  51  56
ENDBRANCH  48  51
ENDBRANCH  46  47
BRANCH  46  58
ATOM     58  CB  PHE A   8       8.815 -12.511   9.488  0.00  0.00    +0.055 C 
BRANCH  58  59
ATOM     59  CG  PHE A   8       7.950 -13.004  10.579  0.00  0.00    -0.020 A 
ATOM     60  CD2 PHE A   8       8.522 -13.237  11.822  0.00  0.00    -0.004 A 
ATOM     61  CE2 PHE A   8       7.715 -13.621  12.891  0.00  0.00    -0.000 A 
ATOM     62  CZ  PHE A   8       6.345 -13.770  12.702  0.00  0.00    -0.000 A 
ATOM     63  CE1 PHE A   8       5.769 -13.536  11.470  0.00  0.00    -0.000 A 
ATOM     64  CD1 PHE A   8       6.573 -13.159  10.411  0.00  0.00    -0.004 A 
ENDBRANCH  58  59
ENDBRANCH  46  58
ENDBRANCH  44  46
ENDBRANCH  41  42
ENDBRANCH  38  41
ENDBRANCH  36  37
ENDBRANCH  34  36
ENDBRANCH   1  32
BRANCH   1  65
ATOM     65  CB  ILE A   5       2.006  -4.006  10.365  0.00  0.00    +0.027 C 
ATOM     66  CG2 ILE A   5       1.385  -3.732   8.981  0.00  0.00    +0.002 C 
BRANCH  65  67
ATOM     67  CG1 ILE A   5       0.996  -3.477  11.425  0.00  0.00    +0.002 C 
ATOM     68  CD1 ILE A   5      -0.460  -3.947  11.308  0.00  0.00    +0.000 C 
ENDBRANCH  65  67
ENDBRANCH   1  65
TORSDOF 29
REMARK  Name = ../refined-set-2016/1ohr/1ohr_pocket.pdb
REMARK  212 active torsions:
REMARK  status: ('A' for Active; 'I' for Inactive)
REMARK    1  A    between atoms: _1  and  _3
REMARK    2  A    between atoms: _3  and  _4
REMARK    3  A    between atoms: _3  and  _6
REMARK    4  A    between atoms: _6  and  _7
REMARK    5  A    between atoms: _7  and  _8
REMARK    6  A    between atoms: _8  and  _9
REMARK    7  A    between atoms: _18  and  _20
REMARK    8  A    between atoms: _20  and  _21
REMARK    9  A    between atoms: _20  and  _23
REMARK   10  A    between atoms: _23  and  _24
REMARK   11  A    between atoms: _27  and  _29
REMARK   12  A    between atoms: _29  and  _30
REMARK   13  A    between atoms: _29  and  _32
REMARK   14  A    between atoms: _32  and  _33
REMARK   15  A    between atoms: _36  and  _38
REMARK   16  A    between atoms: _38  and  _39
REMARK   17  A    between atoms: _38  and  _41
REMARK   18  A    between atoms: _41  and  _42
REMARK   19  A    between atoms: _45  and  _47
REMARK   20  A    between atoms: _47  and  _48
REMARK   21  A    between atoms: _47  and  _50
REMARK   22  A    between atoms: _50  and  _51
REMARK   23  A    between atoms: _54  and  _56
REMARK   24  A    between atoms: _56  and  _57
REMARK   25  A    between atoms: _59  and  _61
REMARK   26  A    between atoms: _61  and  _62
REMARK   27  A    between atoms: _65  and  _67
REMARK   28  A    between atoms: _67  and  _68
REMARK   29  A    between atoms: _67  and  _70
REMARK   30  A    between atoms: _70  and  _71
REMARK   31  A    between atoms: _74  and  _76
REMARK   32  A    between atoms: _76  and  _77
REMARK   33  A    between atoms: _76  and  _79
REMARK   34  A    between atoms: _79  and  _80
REMARK   35  A    between atoms: _83  and  _85
REMARK   36  A    between atoms: _85  and  _86
REMARK   37  A    between atoms: _85  and  _88
REMARK   38  A    between atoms: _88  and  _89
REMARK   39  A    between atoms: _92  and  _94
REMARK   40  A    between atoms: _94  and  _95
REMARK   41  A    between atoms: _94  and  _97
REMARK   42  A    between atoms: _100  and  _102
REMARK   43  A    between atoms: _102  and  _103
REMARK   44  A    between atoms: _102  and  _105
REMARK   45  A    between atoms: _105  and  _106
REMARK   46  A    between atoms: _106  and  _107
REMARK   47  A    between atoms: _109  and  _111
REMARK   48  A    between atoms: _111  and  _112
REMARK   49  A    between atoms: _111  and  _114
REMARK   50  A    between atoms: _114  and  _115
REMARK   51  A    between atoms: _118  and  _120
REMARK   52  A    between atoms: _120  and  _121
REMARK   53  A    between atoms: _123  and  _125
REMARK   54  A    between atoms: _125  and  _126
REMARK   55  A    between atoms: _128  and  _130
REMARK   56  A    between atoms: _130  and  _131
REMARK   57  A    between atoms: _130  and  _133
REMARK   58  A    between atoms: _133  and  _134
REMARK   59  A    between atoms: _137  and  _139
REMARK   60  A    between atoms: _139  and  _140
REMARK   61  A    between atoms: _142  and  _144
REMARK   62  A    between atoms: _144  and  _145
REMARK   63  A    between atoms: _147  and  _149
REMARK   64  A    between atoms: _149  and  _150
REMARK   65  A    between atoms: _149  and  _152
REMARK   66  A    between atoms: _152  and  _153
REMARK   67  A    between atoms: _156  and  _158
REMARK   68  A    between atoms: _158  and  _159
REMARK   69  A    between atoms: _158  and  _161
REMARK   70  A    between atoms: _161  and  _162
REMARK   71  A    between atoms: _166  and  _167
REMARK   72  A    between atoms: _172  and  _174
REMARK   73  A    between atoms: _174  and  _175
REMARK   74  A    between atoms: _174  and  _177
REMARK   75  A    between atoms: _177  and  _178
REMARK   76  A    between atoms: _182  and  _183
REMARK   77  A    between atoms: _188  and  _190
REMARK   78  A    between atoms: _190  and  _191
REMARK   79  A    between atoms: _190  and  _193
REMARK   80  A    between atoms: _196  and  _198
REMARK   81  A    between atoms: _198  and  _199
REMARK   82  A    between atoms: _198  and  _201
REMARK   83  A    between atoms: _201  and  _202
REMARK   84  A    between atoms: _207  and  _209
REMARK   85  A    between atoms: _209  and  _210
REMARK   86  A    between atoms: _209  and  _212
REMARK   87  A    between atoms: _212  and  _213
REMARK   88  A    between atoms: _216  and  _218
REMARK   89  A    between atoms: _218  and  _219
REMARK   90  A    between atoms: _218  and  _221
REMARK   91  A    between atoms: _221  and  _222
REMARK   92  A    between atoms: _225  and  _227
REMARK   93  A    between atoms: _227  and  _228
REMARK   94  A    between atoms: _230  and  _232
REMARK   95  A    between atoms: _232  and  _233
REMARK   96  A    between atoms: _232  and  _235
REMARK   97  A    between atoms: _235  and  _236
REMARK   98  A    between atoms: _236  and  _237
REMARK   99  A    between atoms: _237  and  _238
REMARK  100  A    between atoms: _247  and  _249
REMARK  101  A    between atoms: _249  and  _250
REMARK  102  A    between atoms: _249  and  _252
REMARK  103  A    between atoms: _252  and  _253
REMARK  104  A    between atoms: _258  and  _260
REMARK  105  A    between atoms: _260  and  _261
REMARK  106  A    between atoms: _260  and  _263
REMARK  107  A    between atoms: _263  and  _264
REMARK  108  A    between atoms: _264  and  _265
REMARK  109  A    between atoms: _265  and  _266
REMARK  110  A    between atoms: _275  and  _277
REMARK  111  A    between atoms: _277  and  _278
REMARK  112  A    between atoms: _277  and  _280
REMARK  113  A    between atoms: _280  and  _281
REMARK  114  A    between atoms: _284  and  _286
REMARK  115  A    between atoms: _286  and  _287
REMARK  116  A    between atoms: _286  and  _289
REMARK  117  A    between atoms: _289  and  _290
REMARK  118  A    between atoms: _293  and  _295
REMARK  119  A    between atoms: _295  and  _296
REMARK  120  A    between atoms: _295  and  _298
REMARK  121  A    between atoms: _298  and  _299
REMARK  122  A    between atoms: _302  and  _304
REMARK  123  A    between atoms: _304  and  _305
REMARK  124  A    between atoms: _304  and  _307
REMARK  125  A    between atoms: _307  and  _308
REMARK  126  A    between atoms: _311  and  _313
REMARK  127  A    between atoms: _313  and  _314
REMARK  128  A    between atoms: _313  and  _316
REMARK  129  A    between atoms: _316  and  _317
REMARK  130  A    between atoms: _320  and  _322
REMARK  131  A    between atoms: _322  and  _323
REMARK  132  A    between atoms: _325  and  _327
REMARK  133  A    between atoms: _327  and  _328
REMARK  134  A    between atoms: _331  and  _333
REMARK  135  A    between atoms: _333  and  _334
REMARK  136  A    between atoms: _333  and  _336
REMARK  137  A    between atoms: _336  and  _337
REMARK  138  A    between atoms: _340  and  _342
REMARK  139  A    between atoms: _342  and  _343
REMARK  140  A    between atoms: _342  and  _345
REMARK  141  A    between atoms: _345  and  _346
REMARK  142  A    between atoms: _349  and  _351
REMARK  143  A    between atoms: _351  and  _352
REMARK  144  A    between atoms: _351  and  _354
REMARK  145  A    between atoms: _354  and  _355
REMARK  146  A    between atoms: _358  and  _360
REMARK  147  A    between atoms: _360  and  _361
REMARK  148  A    between atoms: _360  and  _363
REMARK  149  A    between atoms: _366  and  _368
REMARK  150  A    between atoms: _368  and  _369
REMARK  151  A    between atoms: _368  and  _371
REMARK  152  A    between atoms: _371  and  _372
REMARK  153  A    between atoms: _372  and  _373
REMARK  154  A    between atoms: _375  and  _377
REMARK  155  A    between atoms: _377  and  _378
REMARK  156  A    between atoms: _377  and  _380
REMARK  157  A    between atoms: _380  and  _381
REMARK  158  A    between atoms: _384  and  _386
REMARK  159  A    between atoms: _386  and  _387
REMARK  160  A    between atoms: _389  and  _391
REMARK  161  A    between atoms: _391  and  _392
REMARK  162  A    between atoms: _394  and  _396
REMARK  163  A    between atoms: _396  and  _397
REMARK  164  A    between atoms: _396  and  _399
REMARK  165  A    between atoms: _399  and  _400
REMARK  166  A    between atoms: _403  and  _405
REMARK  167  A    between atoms: _405  and  _406
REMARK  168  A    between atoms: _408  and  _410
REMARK  169  A    between atoms: _410  and  _411
REMARK  170  A    between atoms: _413  and  _415
REMARK  171  A    between atoms: _415  and  _416
REMARK  172  A    between atoms: _415  and  _418
REMARK  173  A    between atoms: _418  and  _419
REMARK  174  A    between atoms: _425  and  _427
REMARK  175  A    between atoms: _427  and  _428
REMARK  176  A    between atoms: _427  and  _430
REMARK  177  A    between atoms: _430  and  _431
REMARK  178  A    between atoms: _434  and  _436
REMARK  179  A    between atoms: _436  and  _437
REMARK  180  A    between atoms: _436  and  _439
REMARK  181  A    between atoms: _442  and  _444
REMARK  182  A    between atoms: _444  and  _445
REMARK  183  A    between atoms: _444  and  _447
REMARK  184  A    between atoms: _447  and  _448
REMARK  185  A    between atoms: _451  and  _453
REMARK  186  A    between atoms: _453  and  _454
REMARK  187  A    between atoms: _453  and  _456
REMARK  188  A    between atoms: _456  and  _457
REMARK  189  A    between atoms: _461  and  _462
REMARK  190  A    between atoms: _467  and  _469
REMARK  191  A    between atoms: _469  and  _470
REMARK  192  A    between atoms: _469  and  _472
REMARK  193  A    between atoms: _475  and  _477
REMARK  194  A    between atoms: _477  and  _478
REMARK  195  A    between atoms: _477  and  _480
REMARK  196  A    between atoms: _480  and  _481
REMARK  197  A    between atoms: _486  and  _488
REMARK  198  A    between atoms: _488  and  _489
REMARK  199  A    between atoms: _488  and  _491
REMARK  200  A    between atoms: _491  and  _492
REMARK  201  A    between atoms: _495  and  _497
REMARK  202  A    between atoms: _497  and  _498
REMARK  203  A    between atoms: _497  and  _500
REMARK  204  A    between atoms: _500  and  _501
REMARK  205  A    between atoms: _504  and  _506
REMARK  206  A    between atoms: _506  and  _507
REMARK  207  A    between atoms: _509  and  _511
REMARK  208  A    between atoms: _511  and  _512
REMARK  209  A    between atoms: _511  and  _514
REMARK  210  A    between atoms: _514  and  _515
REMARK  211  A    between atoms: _515  and  _516
REMARK  212  A    between atoms: _516  and  _517
REMARK                            x       y       z     vdW  Elec       q    Type
REMARK                         _______ _______ _______ _____ _____    ______ ____
ROOT
ATOM      1  CA  VAL A   1      17.756  -9.505  11.453  0.00  0.00    +0.133 C 
ENDROOT
BRANCH   1   2
ATOM      2  CB  VAL A   1      16.977  -8.688  12.526  0.00  0.00    +0.023 C 
ATOM      3  CG2 VAL A   1      16.337  -9.678  13.528  0.00  0.00    +0.002 C 
ATOM      4  CG1 VAL A   1      15.896  -7.780  11.865  0.00  0.00    +0.002 C 
ENDBRANCH   1   2
BRANCH   1   5
ATOM      5  N   VAL A   1      16.874 -10.480  10.801  0.00  0.00    -0.239 NA
ATOM      6  H   VAL A   1      16.681 -11.383  11.280  0.00  0.00    +0.142 HD
ENDBRANCH   1   5
BRANCH   1   7
ATOM      7  C   VAL A   1      18.882 -10.250  12.138  0.00  0.00    +0.224 C 
ATOM      8  O   VAL A   1      18.843 -11.482  12.271  0.00  0.00    -0.287 OA
ENDBRANCH   1   7
TORSDOF 3
REMARK  Name = ../refined-set-2016/1ohr/1ohr_pocket.pdb
REMARK  212 active torsions:
REMARK  status: ('A' for Active; 'I' for Inactive)
REMARK    1  A    between atoms: _1  and  _3
REMARK    2  A    between atoms: _3  and  _4
REMARK    3  A    between atoms: _3  and  _6
REMARK    4  A    between atoms: _6  and  _7
REMARK    5  A    between atoms: _7  and  _8
REMARK    6  A    between atoms: _8  and  _9
REMARK    7  A    between atoms: _18  and  _20
REMARK    8  A    between atoms: _20  and  _21
REMARK    9  A    between atoms: _20  and  _23
REMARK   10  A    between atoms: _23  and  _24
REMARK   11  A    between atoms: _27  and  _29
REMARK   12  A    between atoms: _29  and  _30
REMARK   13  A    between atoms: _29  and  _32
REMARK   14  A    between atoms: _32  and  _33
REMARK   15  A    between atoms: _36  and  _38
REMARK   16  A    between atoms: _38  and  _39
REMARK   17  A    between atoms: _38  and  _41
REMARK   18  A    between atoms: _41  and  _42
REMARK   19  A    between atoms: _45  and  _47
REMARK   20  A    between atoms: _47  and  _48
REMARK   21  A    between atoms: _47  and  _50
REMARK   22  A    between atoms: _50  and  _51
REMARK   23  A    between atoms: _54  and  _56
REMARK   24  A    between atoms: _56  and  _57
REMARK   25  A    between atoms: _59  and  _61
REMARK   26  A    between atoms: _61  and  _62
REMARK   27  A    between atoms: _65  and  _67
REMARK   28  A    between atoms: _67  and  _68
REMARK   29  A    between atoms: _67  and  _70
REMARK   30  A    between atoms: _70  and  _71
REMARK   31  A    between atoms: _74  and  _76
REMARK   32  A    between atoms: _76  and  _77
REMARK   33  A    between atoms: _76  and  _79
REMARK   34  A    between atoms: _79  and  _80
REMARK   35  A    between atoms: _83  and  _85
REMARK   36  A    between atoms: _85  and  _86
REMARK   37  A    between atoms: _85  and  _88
REMARK   38  A    between atoms: _88  and  _89
REMARK   39  A    between atoms: _92  and  _94
REMARK   40  A    between atoms: _94  and  _95
REMARK   41  A    between atoms: _94  and  _97
REMARK   42  A    between atoms: _100  and  _102
REMARK   43  A    between atoms: _102  and  _103
REMARK   44  A    between atoms: _102  and  _105
REMARK   45  A    between atoms: _105  and  _106
REMARK   46  A    between atoms: _106  and  _107
REMARK   47  A    between atoms: _109  and  _111
REMARK   48  A    between atoms: _111  and  _112
REMARK   49  A    between atoms: _111  and  _114
REMARK   50  A    between atoms: _114  and  _115
REMARK   51  A    between atoms: _118  and  _120
REMARK   52  A    between atoms: _120  and  _121
REMARK   53  A    between atoms: _123  and  _125
REMARK   54  A    between atoms: _125  and  _126
REMARK   55  A    between atoms: _128  and  _130
REMARK   56  A    between atoms: _130  and  _131
REMARK   57  A    between atoms: _130  and  _133
REMARK   58  A    between atoms: _133  and  _134
REMARK   59  A    between atoms: _137  and  _139
REMARK   60  A    between atoms: _139  and  _140
REMARK   61  A    between atoms: _142  and  _144
REMARK   62  A    between atoms: _144  and  _145
REMARK   63  A    between atoms: _147  and  _149
REMARK   64  A    between atoms: _149  and  _150
REMARK   65  A    between atoms: _149  and  _152
REMARK   66  A    between atoms: _152  and  _153
REMARK   67  A    between atoms: _156  and  _158
REMARK   68  A    between atoms: _158  and  _159
REMARK   69  A    between atoms: _158  and  _161
REMARK   70  A    between atoms: _161  and  _162
REMARK   71  A    between atoms: _166  and  _167
REMARK   72  A    between atoms: _172  and  _174
REMARK   73  A    between atoms: _174  and  _175
REMARK   74  A    between atoms: _174  and  _177
REMARK   75  A    between atoms: _177  and  _178
REMARK   76  A    between atoms: _182  and  _183
REMARK   77  A    between atoms: _188  and  _190
REMARK   78  A    between atoms: _190  and  _191
REMARK   79  A    between atoms: _190  and  _193
REMARK   80  A    between atoms: _196  and  _198
REMARK   81  A    between atoms: _198  and  _199
REMARK   82  A    between atoms: _198  and  _201
REMARK   83  A    between atoms: _201  and  _202
REMARK   84  A    between atoms: _207  and  _209
REMARK   85  A    between atoms: _209  and  _210
REMARK   86  A    between atoms: _209  and  _212
REMARK   87  A    between atoms: _212  and  _213
REMARK   88  A    between atoms: _216  and  _218
REMARK   89  A    between atoms: _218  and  _219
REMARK   90  A    between atoms: _218  and  _221
REMARK   91  A    between atoms: _221  and  _222
REMARK   92  A    between atoms: _225  and  _227
REMARK   93  A    between atoms: _227  and  _228
REMARK   94  A    between atoms: _230  and  _232
REMARK   95  A    between atoms: _232  and  _233
REMARK   96  A    between atoms: _232  and  _235
REMARK   97  A    between atoms: _235  and  _236
REMARK   98  A    between atoms: _236  and  _237
REMARK   99  A    between atoms: _237  and  _238
REMARK  100  A    between atoms: _247  and  _249
REMARK  101  A    between atoms: _249  and  _250
REMARK  102  A    between atoms: _249  and  _252
REMARK  103  A    between atoms: _252  and  _253
REMARK  104  A    between atoms: _258  and  _260
REMARK  105  A    between atoms: _260  and  _261
REMARK  106  A    between atoms: _260  and  _263
REMARK  107  A    between atoms: _263  and  _264
REMARK  108  A    between atoms: _264  and  _265
REMARK  109  A    between atoms: _265  and  _266
REMARK  110  A    between atoms: _275  and  _277
REMARK  111  A    between atoms: _277  and  _278
REMARK  112  A    between atoms: _277  and  _280
REMARK  113  A    between atoms: _280  and  _281
REMARK  114  A    between atoms: _284  and  _286
REMARK  115  A    between atoms: _286  and  _287
REMARK  116  A    between atoms: _286  and  _289
REMARK  117  A    between atoms: _289  and  _290
REMARK  118  A    between atoms: _293  and  _295
REMARK  119  A    between atoms: _295  and  _296
REMARK  120  A    between atoms: _295  and  _298
REMARK  121  A    between atoms: _298  and  _299
REMARK  122  A    between atoms: _302  and  _304
REMARK  123  A    between atoms: _304  and  _305
REMARK  124  A    between atoms: _304  and  _307
REMARK  125  A    between atoms: _307  and  _308
REMARK  126  A    between atoms: _311  and  _313
REMARK  127  A    between atoms: _313  and  _314
REMARK  128  A    between atoms: _313  and  _316
REMARK  129  A    between atoms: _316  and  _317
REMARK  130  A    between atoms: _320  and  _322
REMARK  131  A    between atoms: _322  and  _323
REMARK  132  A    between atoms: _325  and  _327
REMARK  133  A    between atoms: _327  and  _328
REMARK  134  A    between atoms: _331  and  _333
REMARK  135  A    between atoms: _333  and  _334
REMARK  136  A    between atoms: _333  and  _336
REMARK  137  A    between atoms: _336  and  _337
REMARK  138  A    between atoms: _340  and  _342
REMARK  139  A    between atoms: _342  and  _343
REMARK  140  A    between atoms: _342  and  _345
REMARK  141  A    between atoms: _345  and  _346
REMARK  142  A    between atoms: _349  and  _351
REMARK  143  A    between atoms: _351  and  _352
REMARK  144  A    between atoms: _351  and  _354
REMARK  145  A    between atoms: _354  and  _355
REMARK  146  A    between atoms: _358  and  _360
REMARK  147  A    between atoms: _360  and  _361
REMARK  148  A    between atoms: _360  and  _363
REMARK  149  A    between atoms: _366  and  _368
REMARK  150  A    between atoms: _368  and  _369
REMARK  151  A    between atoms: _368  and  _371
REMARK  152  A    between atoms: _371  and  _372
REMARK  153  A    between atoms: _372  and  _373
REMARK  154  A    between atoms: _375  and  _377
REMARK  155  A    between atoms: _377  and  _378
REMARK  156  A    between atoms: _377  and  _380
REMARK  157  A    between atoms: _380  and  _381
REMARK  158  A    between atoms: _384  and  _386
REMARK  159  A    between atoms: _386  and  _387
REMARK  160  A    between atoms: _389  and  _391
REMARK  161  A    between atoms: _391  and  _392
REMARK  162  A    between atoms: _394  and  _396
REMARK  163  A    between atoms: _396  and  _397
REMARK  164  A    between atoms: _396  and  _399
REMARK  165  A    between atoms: _399  and  _400
REMARK  166  A    between atoms: _403  and  _405
REMARK  167  A    between atoms: _405  and  _406
REMARK  168  A    between atoms: _408  and  _410
REMARK  169  A    between atoms: _410  and  _411
REMARK  170  A    between atoms: _413  and  _415
REMARK  171  A    between atoms: _415  and  _416
REMARK  172  A    between atoms: _415  and  _418
REMARK  173  A    between atoms: _418  and  _419
REMARK  174  A    between atoms: _425  and  _427
REMARK  175  A    between atoms: _427  and  _428
REMARK  176  A    between atoms: _427  and  _430
REMARK  177  A    between atoms: _430  and  _431
REMARK  178  A    between atoms: _434  and  _436
REMARK  179  A    between atoms: _436  and  _437
REMARK  180  A    between atoms: _436  and  _439
REMARK  181  A    between atoms: _442  and  _444
REMARK  182  A    between atoms: _444  and  _445
REMARK  183  A    between atoms: _444  and  _447
REMARK  184  A    between atoms: _447  and  _448
REMARK  185  A    between atoms: _451  and  _453
REMARK  186  A    between atoms: _453  and  _454
REMARK  187  A    between atoms: _453  and  _456
REMARK  188  A    between atoms: _456  and  _457
REMARK  189  A    between atoms: _461  and  _462
REMARK  190  A    between atoms: _467  and  _469
REMARK  191  A    between atoms: _469  and  _470
REMARK  192  A    between atoms: _469  and  _472
REMARK  193  A    between atoms: _475  and  _477
REMARK  194  A    between atoms: _477  and  _478
REMARK  195  A    between atoms: _477  and  _480
REMARK  196  A    between atoms: _480  and  _481
REMARK  197  A    between atoms: _486  and  _488
REMARK  198  A    between atoms: _488  and  _489
REMARK  199  A    between atoms: _488  and  _491
REMARK  200  A    between atoms: _491  and  _492
REMARK  201  A    between atoms: _495  and  _497
REMARK  202  A    between atoms: _497  and  _498
REMARK  203  A    between atoms: _497  and  _500
REMARK  204  A    between atoms: _500  and  _501
REMARK  205  A    between atoms: _504  and  _506
REMARK  206  A    between atoms: _506  and  _507
REMARK  207  A    between atoms: _509  and  _511
REMARK  208  A    between atoms: _511  and  _512
REMARK  209  A    between atoms: _511  and  _514
REMARK  210  A    between atoms: _514  and  _515
REMARK  211  A    between atoms: _515  and  _516
REMARK  212  A    between atoms: _516  and  _517
REMARK                            x       y       z     vdW  Elec       q    Type
REMARK                         _______ _______ _______ _____ _____    ______ ____
ROOT
ATOM      1  CA  LEU A   1      18.480  -6.326  16.207  0.00  0.00    +0.133 C 
ENDROOT
BRANCH   1   2
ATOM      2  N   LEU A   1      18.620  -5.554  17.419  0.00  0.00    -0.239 NA
ATOM      3  H   LEU A   1      17.890  -4.843  17.629  0.00  0.00    +0.142 HD
ENDBRANCH   1   2
BRANCH   1   4
ATOM      4  C   LEU A   1      18.880  -5.363  15.101  0.00  0.00    +0.224 C 
ATOM      5  O   LEU A   1      18.516  -4.181  15.119  0.00  0.00    -0.287 OA
ENDBRANCH   1   4
BRANCH   1   6
ATOM      6  CB  LEU A   1      17.007  -6.791  16.057  0.00  0.00    +0.025 C 
BRANCH   6   7
ATOM      7  CG  LEU A   1      16.501  -7.581  17.258  0.00  0.00    +0.002 C 
ATOM      8  CD2 LEU A   1      17.330  -8.855  17.361  0.00  0.00    +0.000 C 
ATOM      9  CD1 LEU A   1      15.025  -7.898  17.130  0.00  0.00    +0.000 C 
ENDBRANCH   6   7
ENDBRANCH   1   6
TORSDOF 4
REMARK  Name = ../refined-set-2016/1ohr/1ohr_pocket.pdb
REMARK  212 active torsions:
REMARK  status: ('A' for Active; 'I' for Inactive)
REMARK    1  A    between atoms: _1  and  _3
REMARK    2  A    between atoms: _3  and  _4
REMARK    3  A    between atoms: _3  and  _6
REMARK    4  A    between atoms: _6  and  _7
REMARK    5  A    between atoms: _7  and  _8
REMARK    6  A    between atoms: _8  and  _9
REMARK    7  A    between atoms: _18  and  _20
REMARK    8  A    between atoms: _20  and  _21
REMARK    9  A    between atoms: _20  and  _23
REMARK   10  A    between atoms: _23  and  _24
REMARK   11  A    between atoms: _27  and  _29
REMARK   12  A    between atoms: _29  and  _30
REMARK   13  A    between atoms: _29  and  _32
REMARK   14  A    between atoms: _32  and  _33
REMARK   15  A    between atoms: _36  and  _38
REMARK   16  A    between atoms: _38  and  _39
REMARK   17  A    between atoms: _38  and  _41
REMARK   18  A    between atoms: _41  and  _42
REMARK   19  A    between atoms: _45  and  _47
REMARK   20  A    between atoms: _47  and  _48
REMARK   21  A    between atoms: _47  and  _50
REMARK   22  A    between atoms: _50  and  _51
REMARK   23  A    between atoms: _54  and  _56
REMARK   24  A    between atoms: _56  and  _57
REMARK   25  A    between atoms: _59  and  _61
REMARK   26  A    between atoms: _61  and  _62
REMARK   27  A    between atoms: _65  and  _67
REMARK   28  A    between atoms: _67  and  _68
REMARK   29  A    between atoms: _67  and  _70
REMARK   30  A    between atoms: _70  and  _71
REMARK   31  A    between atoms: _74  and  _76
REMARK   32  A    between atoms: _76  and  _77
REMARK   33  A    between atoms: _76  and  _79
REMARK   34  A    between atoms: _79  and  _80
REMARK   35  A    between atoms: _83  and  _85
REMARK   36  A    between atoms: _85  and  _86
REMARK   37  A    between atoms: _85  and  _88
REMARK   38  A    between atoms: _88  and  _89
REMARK   39  A    between atoms: _92  and  _94
REMARK   40  A    between atoms: _94  and  _95
REMARK   41  A    between atoms: _94  and  _97
REMARK   42  A    between atoms: _100  and  _102
REMARK   43  A    between atoms: _102  and  _103
REMARK   44  A    between atoms: _102  and  _105
REMARK   45  A    between atoms: _105  and  _106
REMARK   46  A    between atoms: _106  and  _107
REMARK   47  A    between atoms: _109  and  _111
REMARK   48  A    between atoms: _111  and  _112
REMARK   49  A    between atoms: _111  and  _114
REMARK   50  A    between atoms: _114  and  _115
REMARK   51  A    between atoms: _118  and  _120
REMARK   52  A    between atoms: _120  and  _121
REMARK   53  A    between atoms: _123  and  _125
REMARK   54  A    between atoms: _125  and  _126
REMARK   55  A    between atoms: _128  and  _130
REMARK   56  A    between atoms: _130  and  _131
REMARK   57  A    between atoms: _130  and  _133
REMARK   58  A    between atoms: _133  and  _134
REMARK   59  A    between atoms: _137  and  _139
REMARK   60  A    between atoms: _139  and  _140
REMARK   61  A    between atoms: _142  and  _144
REMARK   62  A    between atoms: _144  and  _145
REMARK   63  A    between atoms: _147  and  _149
REMARK   64  A    between atoms: _149  and  _150
REMARK   65  A    between atoms: _149  and  _152
REMARK   66  A    between atoms: _152  and  _153
REMARK   67  A    between atoms: _156  and  _158
REMARK   68  A    between atoms: _158  and  _159
REMARK   69  A    between atoms: _158  and  _161
REMARK   70  A    between atoms: _161  and  _162
REMARK   71  A    between atoms: _166  and  _167
REMARK   72  A    between atoms: _172  and  _174
REMARK   73  A    between atoms: _174  and  _175
REMARK   74  A    between atoms: _174  and  _177
REMARK   75  A    between atoms: _177  and  _178
REMARK   76  A    between atoms: _182  and  _183
REMARK   77  A    between atoms: _188  and  _190
REMARK   78  A    between atoms: _190  and  _191
REMARK   79  A    between atoms: _190  and  _193
REMARK   80  A    between atoms: _196  and  _198
REMARK   81  A    between atoms: _198  and  _199
REMARK   82  A    between atoms: _198  and  _201
REMARK   83  A    between atoms: _201  and  _202
REMARK   84  A    between atoms: _207  and  _209
REMARK   85  A    between atoms: _209  and  _210
REMARK   86  A    between atoms: _209  and  _212
REMARK   87  A    between atoms: _212  and  _213
REMARK   88  A    between atoms: _216  and  _218
REMARK   89  A    between atoms: _218  and  _219
REMARK   90  A    between atoms: _218  and  _221
REMARK   91  A    between atoms: _221  and  _222
REMARK   92  A    between atoms: _225  and  _227
REMARK   93  A    between atoms: _227  and  _228
REMARK   94  A    between atoms: _230  and  _232
REMARK   95  A    between atoms: _232  and  _233
REMARK   96  A    between atoms: _232  and  _235
REMARK   97  A    between atoms: _235  and  _236
REMARK   98  A    between atoms: _236  and  _237
REMARK   99  A    between atoms: _237  and  _238
REMARK  100  A    between atoms: _247  and  _249
REMARK  101  A    between atoms: _249  and  _250
REMARK  102  A    between atoms: _249  and  _252
REMARK  103  A    between atoms: _252  and  _253
REMARK  104  A    between atoms: _258  and  _260
REMARK  105  A    between atoms: _260  and  _261
REMARK  106  A    between atoms: _260  and  _263
REMARK  107  A    between atoms: _263  and  _264
REMARK  108  A    between atoms: _264  and  _265
REMARK  109  A    between atoms: _265  and  _266
REMARK  110  A    between atoms: _275  and  _277
REMARK  111  A    between atoms: _277  and  _278
REMARK  112  A    between atoms: _277  and  _280
REMARK  113  A    between atoms: _280  and  _281
REMARK  114  A    between atoms: _284  and  _286
REMARK  115  A    between atoms: _286  and  _287
REMARK  116  A    between atoms: _286  and  _289
REMARK  117  A    between atoms: _289  and  _290
REMARK  118  A    between atoms: _293  and  _295
REMARK  119  A    between atoms: _295  and  _296
REMARK  120  A    between atoms: _295  and  _298
REMARK  121  A    between atoms: _298  and  _299
REMARK  122  A    between atoms: _302  and  _304
REMARK  123  A    between atoms: _304  and  _305
REMARK  124  A    between atoms: _304  and  _307
REMARK  125  A    between atoms: _307  and  _308
REMARK  126  A    between atoms: _311  and  _313
REMARK  127  A    between atoms: _313  and  _314
REMARK  128  A    between atoms: _313  and  _316
REMARK  129  A    between atoms: _316  and  _317
REMARK  130  A    between atoms: _320  and  _322
REMARK  131  A    between atoms: _322  and  _323
REMARK  132  A    between atoms: _325  and  _327
REMARK  133  A    between atoms: _327  and  _328
REMARK  134  A    between atoms: _331  and  _333
REMARK  135  A    between atoms: _333  and  _334
REMARK  136  A    between atoms: _333  and  _336
REMARK  137  A    between atoms: _336  and  _337
REMARK  138  A    between atoms: _340  and  _342
REMARK  139  A    between atoms: _342  and  _343
REMARK  140  A    between atoms: _342  and  _345
REMARK  141  A    between atoms: _345  and  _346
REMARK  142  A    between atoms: _349  and  _351
REMARK  143  A    between atoms: _351  and  _352
REMARK  144  A    between atoms: _351  and  _354
REMARK  145  A    between atoms: _354  and  _355
REMARK  146  A    between atoms: _358  and  _360
REMARK  147  A    between atoms: _360  and  _361
REMARK  148  A    between atoms: _360  and  _363
REMARK  149  A    between atoms: _366  and  _368
REMARK  150  A    between atoms: _368  and  _369
REMARK  151  A    between atoms: _368  and  _371
REMARK  152  A    between atoms: _371  and  _372
REMARK  153  A    between atoms: _372  and  _373
REMARK  154  A    between atoms: _375  and  _377
REMARK  155  A    between atoms: _377  and  _378
REMARK  156  A    between atoms: _377  and  _380
REMARK  157  A    between atoms: _380  and  _381
REMARK  158  A    between atoms: _384  and  _386
REMARK  159  A    between atoms: _386  and  _387
REMARK  160  A    between atoms: _389  and  _391
REMARK  161  A    between atoms: _391  and  _392
REMARK  162  A    between atoms: _394  and  _396
REMARK  163  A    between atoms: _396  and  _397
REMARK  164  A    between atoms: _396  and  _399
REMARK  165  A    between atoms: _399  and  _400
REMARK  166  A    between atoms: _403  and  _405
REMARK  167  A    between atoms: _405  and  _406
REMARK  168  A    between atoms: _408  and  _410
REMARK  169  A    between atoms: _410  and  _411
REMARK  170  A    between atoms: _413  and  _415
REMARK  171  A    between atoms: _415  and  _416
REMARK  172  A    between atoms: _415  and  _418
REMARK  173  A    between atoms: _418  and  _419
REMARK  174  A    between atoms: _425  and  _427
REMARK  175  A    between atoms: _427  and  _428
REMARK  176  A    between atoms: _427  and  _430
REMARK  177  A    between atoms: _430  and  _431
REMARK  178  A    between atoms: _434  and  _436
REMARK  179  A    between atoms: _436  and  _437
REMARK  180  A    between atoms: _436  and  _439
REMARK  181  A    between atoms: _442  and  _444
REMARK  182  A    between atoms: _444  and  _445
REMARK  183  A    between atoms: _444  and  _447
REMARK  184  A    between atoms: _447  and  _448
REMARK  185  A    between atoms: _451  and  _453
REMARK  186  A    between atoms: _453  and  _454
REMARK  187  A    between atoms: _453  and  _456
REMARK  188  A    between atoms: _456  and  _457
REMARK  189  A    between atoms: _461  and  _462
REMARK  190  A    between atoms: _467  and  _469
REMARK  191  A    between atoms: _469  and  _470
REMARK  192  A    between atoms: _469  and  _472
REMARK  193  A    between atoms: _475  and  _477
REMARK  194  A    between atoms: _477  and  _478
REMARK  195  A    between atoms: _477  and  _480
REMARK  196  A    between atoms: _480  and  _481
REMARK  197  A    between atoms: _486  and  _488
REMARK  198  A    between atoms: _488  and  _489
REMARK  199  A    between atoms: _488  and  _491
REMARK  200  A    between atoms: _491  and  _492
REMARK  201  A    between atoms: _495  and  _497
REMARK  202  A    between atoms: _497  and  _498
REMARK  203  A    between atoms: _497  and  _500
REMARK  204  A    between atoms: _500  and  _501
REMARK  205  A    between atoms: _504  and  _506
REMARK  206  A    between atoms: _506  and  _507
REMARK  207  A    between atoms: _509  and  _511
REMARK  208  A    between atoms: _511  and  _512
REMARK  209  A    between atoms: _511  and  _514
REMARK  210  A    between atoms: _514  and  _515
REMARK  211  A    between atoms: _515  and  _516
REMARK  212  A    between atoms: _516  and  _517
REMARK                            x       y       z     vdW  Elec       q    Type
REMARK                         _______ _______ _______ _____ _____    ______ ____
ROOT
ATOM      1  CA  ILE A   5      13.243   1.781  16.623  0.00  0.00    +0.149 C 
ENDROOT
BRANCH   1   3
ATOM      2  C   ASN A   4      14.620   2.957  15.037  0.00  0.00    +0.241 C 
ATOM      3  N   ILE A   5      14.351   1.876  15.685  0.00  0.00    -0.297 N 
ATOM      4  H   ILE A   5      14.949   1.039  15.531  0.00  0.00    +0.150 HD
ATOM      5  O   ASN A   4      13.966   3.963  15.299  0.00  0.00    -0.273 OA
BRANCH   2   6
ATOM      6  CA  ASN A   4      15.783   2.996  14.041  0.00  0.00    +0.158 C 
BRANCH   6   8
ATOM      7  C   VAL A   3      14.420   3.052  12.029  0.00  0.00    +0.241 C 
ATOM      8  N   ASN A   4      15.277   3.681  12.839  0.00  0.00    -0.297 N 
ATOM      9  H   ASN A   4      15.585   4.650  12.622  0.00  0.00    +0.150 HD
ATOM     10  O   VAL A   3      14.142   1.872  12.172  0.00  0.00    -0.273 OA
BRANCH   7  11
ATOM     11  CA  VAL A   3      13.856   3.770  10.832  0.00  0.00    +0.149 C 
BRANCH  11  13
ATOM     12  C   PRO A   2      13.804   3.191   8.516  0.00  0.00    +0.241 C 
ATOM     13  N   VAL A   3      13.597   2.821   9.765  0.00  0.00    -0.297 N 
ATOM     14  H   VAL A   3      13.253   1.864   9.982  0.00  0.00    +0.150 HD
ATOM     15  O   PRO A   2      14.264   4.315   8.237  0.00  0.00    -0.273 OA
BRANCH  12  22
ATOM     16  C   THR A   1      14.612   0.162   8.136  0.00  0.00    +0.244 C 
ATOM     17  O   THR A   1      15.701   0.700   7.996  0.00  0.00    -0.273 OA
ATOM     18  N   PRO A   2      13.480   0.793   7.837  0.00  0.00    -0.272 N 
ATOM     19  CD  PRO A   2      12.138   0.210   7.768  0.00  0.00    +0.094 C 
ATOM     20  CG  PRO A   2      11.227   1.436   7.762  0.00  0.00    +0.024 C 
ATOM     21  CB  PRO A   2      12.023   2.408   6.899  0.00  0.00    +0.031 C 
ATOM     22  CA  PRO A   2      13.444   2.192   7.425  0.00  0.00    +0.152 C 
BRANCH  16  23
ATOM     23  CA  THR A   1      14.510  -1.255   8.690  0.00  0.00    +0.172 C 
BRANCH  23  24
ATOM     24  N   THR A   1      15.613  -2.132   8.237  0.00  0.00    -0.236 NA
ATOM     25  H   THR A   1      16.345  -2.401   8.925  0.00  0.00    +0.142 HD
ENDBRANCH  23  24
BRANCH  23  26
ATOM     26  CB  THR A   1      14.495  -1.214  10.241  0.00  0.00    +0.135 C 
ATOM     27  CG2 THR A   1      15.748  -0.639  10.866  0.00  0.00    +0.034 C 
BRANCH  26  28
ATOM     28  OG1 THR A   1      13.411  -0.390  10.613  0.00  0.00    -0.383 OA
ATOM     29  HG1 THR A   1      13.363  -0.335  11.600  0.00  0.00    +0.210 HD
ENDBRANCH  26  28
ENDBRANCH  23  26
ENDBRANCH  16  23
ENDBRANCH  12  22
ENDBRANCH  11  13
BRANCH  11  30
ATOM     30  CB  VAL A   3      12.475   4.446  11.082  0.00  0.00    +0.027 C 
ATOM     31  CG2 VAL A   3      12.476   5.352  12.322  0.00  0.00    +0.002 C 
ATOM     32  CG1 VAL A   3      11.453   3.383  11.414  0.00  0.00    +0.002 C 
ENDBRANCH  11  30
ENDBRANCH   7  11
ENDBRANCH   6   8
BRANCH   6  33
ATOM     33  CB  ASN A   4      16.948   3.783  14.647  0.00  0.00    +0.114 C 
BRANCH  33  34
ATOM     34  CG  ASN A   4      18.072   3.790  13.649  0.00  0.00    +0.222 C 
ATOM     35  OD1 ASN A   4      18.601   2.757  13.241  0.00  0.00    -0.275 OA
ATOM     36  ND2 ASN A   4      18.453   4.940  13.153  0.00  0.00    -0.329 N 
ATOM     37 HD21 ASN A   4      18.015   5.822  13.488  0.00  0.00    +0.145 HD
ATOM     38 HD22 ASN A   4      19.194   4.972  12.424  0.00  0.00    +0.145 HD
ENDBRANCH  33  34
ENDBRANCH   6  33
ENDBRANCH   2   6
ENDBRANCH   1   3
BRANCH   1  39
ATOM     39  C   ILE A   5      13.746   1.453  17.996  0.00  0.00    +0.241 C 
ATOM     40  N   ILE A   6      13.496   2.306  18.994  0.00  0.00    -0.297 N 
ATOM     41  H   ILE A   6      13.010   3.206  18.805  0.00  0.00    +0.150 HD
ATOM     42  O   ILE A   5      14.483   0.475  18.161  0.00  0.00    -0.273 OA
BRANCH  40  43
ATOM     43  CA  ILE A   6      13.911   1.964  20.357  0.00  0.00    +0.149 C 
BRANCH  43  44
ATOM     44  C   ILE A   6      12.655   1.382  20.971  0.00  0.00    +0.241 C 
ATOM     45  N   GLY A   7      12.723   0.092  21.271  0.00  0.00    -0.295 N 
ATOM     46  H   GLY A   7      13.613  -0.402  21.059  0.00  0.00    +0.150 HD
ATOM     47  O   ILE A   6      11.638   2.056  21.046  0.00  0.00    -0.273 OA
BRANCH  45  48
ATOM     48  CA  GLY A   7      11.640  -0.695  21.879  0.00  0.00    +0.176 C 
BRANCH  48  49
ATOM     49  C   GLY A   7      11.684  -0.667  23.391  0.00  0.00    +0.243 C 
ATOM     50  O   GLY A   7      12.587  -0.091  24.042  0.00  0.00    -0.273 OA
ATOM     51  N   ARG A   8      10.741  -1.391  23.954  0.00  0.00    -0.298 N 
ATOM     52  H   ARG A   8      10.091  -1.927  23.345  0.00  0.00    +0.150 HD
BRANCH  51  53
ATOM     53  CA  ARG A   8      10.571  -1.471  25.415  0.00  0.00    +0.137 C 
BRANCH  53  54
ATOM     54  C   ARG A   8      11.748  -2.014  26.177  0.00  0.00    +0.227 C 
ATOM     55  O   ARG A   8      11.953  -1.590  27.307  0.00  0.00    -0.286 OA
ENDBRANCH  53  54
BRANCH  53  56
ATOM     56  CB  ARG A   8       9.320  -2.313  25.737  0.00  0.00    +0.031 C 
BRANCH  56  57
ATOM     57  CG  ARG A   8       7.956  -1.707  25.297  0.00  0.00    +0.045 C 
BRANCH  57  58
ATOM     58  CD  ARG A   8       6.783  -2.453  25.957  0.00  0.00    +0.174 C 
BRANCH  58  59
ATOM     59  NE  ARG A   8       6.712  -3.854  25.508  0.00  0.00    -0.265 N 
ATOM     60  CZ  ARG A   8       7.129  -4.915  26.227  0.00  0.00    +0.342 C 
ATOM     61  NH2 ARG A   8       7.625  -4.874  27.461  0.00  0.00    -0.292 N 
ATOM     62 HH21 ARG A   8       7.718  -3.963  27.954  0.00  0.00    +0.255 HD
ATOM     63 HH22 ARG A   8       7.920  -5.753  27.932  0.00  0.00    +0.255 HD
ATOM     64  NH1 ARG A   8       7.012  -6.099  25.683  0.00  0.00    -0.292 N 
ATOM     65 HH11 ARG A   8       7.322  -6.944  26.204  0.00  0.00    +0.255 HD
ATOM     66 HH12 ARG A   8       6.609  -6.195  24.729  0.00  0.00    +0.255 HD
ATOM     67  HE  ARG A   8       6.310  -4.038  24.567  0.00  0.00    +0.259 HD
ENDBRANCH  58  59
ENDBRANCH  57  58
ENDBRANCH  56  57
ENDBRANCH  53  56
ENDBRANCH  51  53
ENDBRANCH  48  49
ENDBRANCH  45  48
ENDBRANCH  43  44
BRANCH  43  68
ATOM     68  CB  ILE A   6      14.370   3.184  21.164  0.00  0.00    +0.027 C 
ATOM     69  CG2 ILE A   6      14.796   2.661  22.551  0.00  0.00    +0.002 C 
BRANCH  68  70
ATOM     70  CG1 ILE A   6      15.501   3.954  20.423  0.00  0.00    +0.002 C 
ATOM     71  CD1 ILE A   6      16.767   3.156  20.021  0.00  0.00    +0.000 C 
ENDBRANCH  68  70
ENDBRANCH  43  68
ENDBRANCH  40  43
ENDBRANCH   1  39
BRANCH   1  72
ATOM     72  CB  ILE A   5      12.280   0.684  16.090  0.00  0.00    +0.027 C 
ATOM     73  CG2 ILE A   5      11.336   0.221  17.203  0.00  0.00    +0.002 C 
BRANCH  72  74
ATOM     74  CG1 ILE A   5      11.478   1.264  14.908  0.00  0.00    +0.002 C 
ATOM     75  CD1 ILE A   5      10.897   0.209  13.910  0.00  0.00    +0.000 C 
ENDBRANCH  72  74
ENDBRANCH   1  72
TORSDOF 28
REMARK  Name = ../refined-set-2016/1ohr/1ohr_pocket.pdb
REMARK  212 active torsions:
REMARK  status: ('A' for Active; 'I' for Inactive)
REMARK    1  A    between atoms: _1  and  _3
REMARK    2  A    between atoms: _3  and  _4
REMARK    3  A    between atoms: _3  and  _6
REMARK    4  A    between atoms: _6  and  _7
REMARK    5  A    between atoms: _7  and  _8
REMARK    6  A    between atoms: _8  and  _9
REMARK    7  A    between atoms: _18  and  _20
REMARK    8  A    between atoms: _20  and  _21
REMARK    9  A    between atoms: _20  and  _23
REMARK   10  A    between atoms: _23  and  _24
REMARK   11  A    between atoms: _27  and  _29
REMARK   12  A    between atoms: _29  and  _30
REMARK   13  A    between atoms: _29  and  _32
REMARK   14  A    between atoms: _32  and  _33
REMARK   15  A    between atoms: _36  and  _38
REMARK   16  A    between atoms: _38  and  _39
REMARK   17  A    between atoms: _38  and  _41
REMARK   18  A    between atoms: _41  and  _42
REMARK   19  A    between atoms: _45  and  _47
REMARK   20  A    between atoms: _47  and  _48
REMARK   21  A    between atoms: _47  and  _50
REMARK   22  A    between atoms: _50  and  _51
REMARK   23  A    between atoms: _54  and  _56
REMARK   24  A    between atoms: _56  and  _57
REMARK   25  A    between atoms: _59  and  _61
REMARK   26  A    between atoms: _61  and  _62
REMARK   27  A    between atoms: _65  and  _67
REMARK   28  A    between atoms: _67  and  _68
REMARK   29  A    between atoms: _67  and  _70
REMARK   30  A    between atoms: _70  and  _71
REMARK   31  A    between atoms: _74  and  _76
REMARK   32  A    between atoms: _76  and  _77
REMARK   33  A    between atoms: _76  and  _79
REMARK   34  A    between atoms: _79  and  _80
REMARK   35  A    between atoms: _83  and  _85
REMARK   36  A    between atoms: _85  and  _86
REMARK   37  A    between atoms: _85  and  _88
REMARK   38  A    between atoms: _88  and  _89
REMARK   39  A    between atoms: _92  and  _94
REMARK   40  A    between atoms: _94  and  _95
REMARK   41  A    between atoms: _94  and  _97
REMARK   42  A    between atoms: _100  and  _102
REMARK   43  A    between atoms: _102  and  _103
REMARK   44  A    between atoms: _102  and  _105
REMARK   45  A    between atoms: _105  and  _106
REMARK   46  A    between atoms: _106  and  _107
REMARK   47  A    between atoms: _109  and  _111
REMARK   48  A    between atoms: _111  and  _112
REMARK   49  A    between atoms: _111  and  _114
REMARK   50  A    between atoms: _114  and  _115
REMARK   51  A    between atoms: _118  and  _120
REMARK   52  A    between atoms: _120  and  _121
REMARK   53  A    between atoms: _123  and  _125
REMARK   54  A    between atoms: _125  and  _126
REMARK   55  A    between atoms: _128  and  _130
REMARK   56  A    between atoms: _130  and  _131
REMARK   57  A    between atoms: _130  and  _133
REMARK   58  A    between atoms: _133  and  _134
REMARK   59  A    between atoms: _137  and  _139
REMARK   60  A    between atoms: _139  and  _140
REMARK   61  A    between atoms: _142  and  _144
REMARK   62  A    between atoms: _144  and  _145
REMARK   63  A    between atoms: _147  and  _149
REMARK   64  A    between atoms: _149  and  _150
REMARK   65  A    between atoms: _149  and  _152
REMARK   66  A    between atoms: _152  and  _153
REMARK   67  A    between atoms: _156  and  _158
REMARK   68  A    between atoms: _158  and  _159
REMARK   69  A    between atoms: _158  and  _161
REMARK   70  A    between atoms: _161  and  _162
REMARK   71  A    between atoms: _166  and  _167
REMARK   72  A    between atoms: _172  and  _174
REMARK   73  A    between atoms: _174  and  _175
REMARK   74  A    between atoms: _174  and  _177
REMARK   75  A    between atoms: _177  and  _178
REMARK   76  A    between atoms: _182  and  _183
REMARK   77  A    between atoms: _188  and  _190
REMARK   78  A    between atoms: _190  and  _191
REMARK   79  A    between atoms: _190  and  _193
REMARK   80  A    between atoms: _196  and  _198
REMARK   81  A    between atoms: _198  and  _199
REMARK   82  A    between atoms: _198  and  _201
REMARK   83  A    between atoms: _201  and  _202
REMARK   84  A    between atoms: _207  and  _209
REMARK   85  A    between atoms: _209  and  _210
REMARK   86  A    between atoms: _209  and  _212
REMARK   87  A    between atoms: _212  and  _213
REMARK   88  A    between atoms: _216  and  _218
REMARK   89  A    between atoms: _218  and  _219
REMARK   90  A    between atoms: _218  and  _221
REMARK   91  A    between atoms: _221  and  _222
REMARK   92  A    between atoms: _225  and  _227
REMARK   93  A    between atoms: _227  and  _228
REMARK   94  A    between atoms: _230  and  _232
REMARK   95  A    between atoms: _232  and  _233
REMARK   96  A    between atoms: _232  and  _235
REMARK   97  A    between atoms: _235  and  _236
REMARK   98  A    between atoms: _236  and  _237
REMARK   99  A    between atoms: _237  and  _238
REMARK  100  A    between atoms: _247  and  _249
REMARK  101  A    between atoms: _249  and  _250
REMARK  102  A    between atoms: _249  and  _252
REMARK  103  A    between atoms: _252  and  _253
REMARK  104  A    between atoms: _258  and  _260
REMARK  105  A    between atoms: _260  and  _261
REMARK  106  A    between atoms: _260  and  _263
REMARK  107  A    between atoms: _263  and  _264
REMARK  108  A    between atoms: _264  and  _265
REMARK  109  A    between atoms: _265  and  _266
REMARK  110  A    between atoms: _275  and  _277
REMARK  111  A    between atoms: _277  and  _278
REMARK  112  A    between atoms: _277  and  _280
REMARK  113  A    between atoms: _280  and  _281
REMARK  114  A    between atoms: _284  and  _286
REMARK  115  A    between atoms: _286  and  _287
REMARK  116  A    between atoms: _286  and  _289
REMARK  117  A    between atoms: _289  and  _290
REMARK  118  A    between atoms: _293  and  _295
REMARK  119  A    between atoms: _295  and  _296
REMARK  120  A    between atoms: _295  and  _298
REMARK  121  A    between atoms: _298  and  _299
REMARK  122  A    between atoms: _302  and  _304
REMARK  123  A    between atoms: _304  and  _305
REMARK  124  A    between atoms: _304  and  _307
REMARK  125  A    between atoms: _307  and  _308
REMARK  126  A    between atoms: _311  and  _313
REMARK  127  A    between atoms: _313  and  _314
REMARK  128  A    between atoms: _313  and  _316
REMARK  129  A    between atoms: _316  and  _317
REMARK  130  A    between atoms: _320  and  _322
REMARK  131  A    between atoms: _322  and  _323
REMARK  132  A    between atoms: _325  and  _327
REMARK  133  A    between atoms: _327  and  _328
REMARK  134  A    between atoms: _331  and  _333
REMARK  135  A    between atoms: _333  and  _334
REMARK  136  A    between atoms: _333  and  _336
REMARK  137  A    between atoms: _336  and  _337
REMARK  138  A    between atoms: _340  and  _342
REMARK  139  A    between atoms: _342  and  _343
REMARK  140  A    between atoms: _342  and  _345
REMARK  141  A    between atoms: _345  and  _346
REMARK  142  A    between atoms: _349  and  _351
REMARK  143  A    between atoms: _351  and  _352
REMARK  144  A    between atoms: _351  and  _354
REMARK  145  A    between atoms: _354  and  _355
REMARK  146  A    between atoms: _358  and  _360
REMARK  147  A    between atoms: _360  and  _361
REMARK  148  A    between atoms: _360  and  _363
REMARK  149  A    between atoms: _366  and  _368
REMARK  150  A    between atoms: _368  and  _369
REMARK  151  A    between atoms: _368  and  _371
REMARK  152  A    between atoms: _371  and  _372
REMARK  153  A    between atoms: _372  and  _373
REMARK  154  A    between atoms: _375  and  _377
REMARK  155  A    between atoms: _377  and  _378
REMARK  156  A    between atoms: _377  and  _380
REMARK  157  A    between atoms: _380  and  _381
REMARK  158  A    between atoms: _384  and  _386
REMARK  159  A    between atoms: _386  and  _387
REMARK  160  A    between atoms: _389  and  _391
REMARK  161  A    between atoms: _391  and  _392
REMARK  162  A    between atoms: _394  and  _396
REMARK  163  A    between atoms: _396  and  _397
REMARK  164  A    between atoms: _396  and  _399
REMARK  165  A    between atoms: _399  and  _400
REMARK  166  A    between atoms: _403  and  _405
REMARK  167  A    between atoms: _405  and  _406
REMARK  168  A    between atoms: _408  and  _410
REMARK  169  A    between atoms: _410  and  _411
REMARK  170  A    between atoms: _413  and  _415
REMARK  171  A    between atoms: _415  and  _416
REMARK  172  A    between atoms: _415  and  _418
REMARK  173  A    between atoms: _418  and  _419
REMARK  174  A    between atoms: _425  and  _427
REMARK  175  A    between atoms: _427  and  _428
REMARK  176  A    between atoms: _427  and  _430
REMARK  177  A    between atoms: _430  and  _431
REMARK  178  A    between atoms: _434  and  _436
REMARK  179  A    between atoms: _436  and  _437
REMARK  180  A    between atoms: _436  and  _439
REMARK  181  A    between atoms: _442  and  _444
REMARK  182  A    between atoms: _444  and  _445
REMARK  183  A    between atoms: _444  and  _447
REMARK  184  A    between atoms: _447  and  _448
REMARK  185  A    between atoms: _451  and  _453
REMARK  186  A    between atoms: _453  and  _454
REMARK  187  A    between atoms: _453  and  _456
REMARK  188  A    between atoms: _456  and  _457
REMARK  189  A    between atoms: _461  and  _462
REMARK  190  A    between atoms: _467  and  _469
REMARK  191  A    between atoms: _469  and  _470
REMARK  192  A    between atoms: _469  and  _472
REMARK  193  A    between atoms: _475  and  _477
REMARK  194  A    between atoms: _477  and  _478
REMARK  195  A    between atoms: _477  and  _480
REMARK  196  A    between atoms: _480  and  _481
REMARK  197  A    between atoms: _486  and  _488
REMARK  198  A    between atoms: _488  and  _489
REMARK  199  A    between atoms: _488  and  _491
REMARK  200  A    between atoms: _491  and  _492
REMARK  201  A    between atoms: _495  and  _497
REMARK  202  A    between atoms: _497  and  _498
REMARK  203  A    between atoms: _497  and  _500
REMARK  204  A    between atoms: _500  and  _501
REMARK  205  A    between atoms: _504  and  _506
REMARK  206  A    between atoms: _506  and  _507
REMARK  207  A    between atoms: _509  and  _511
REMARK  208  A    between atoms: _511  and  _512
REMARK  209  A    between atoms: _511  and  _514
REMARK  210  A    between atoms: _514  and  _515
REMARK  211  A    between atoms: _515  and  _516
REMARK  212  A    between atoms: _516  and  _517
REMARK                            x       y       z     vdW  Elec       q    Type
REMARK                         _______ _______ _______ _____ _____    ______ ____
ROOT
ATOM      1  O   HOH     1       5.234  -3.131  11.969  0.00  0.00    +0.000 OA
ENDROOT
TORSDOF 0
REMARK  Name = ../refined-set-2016/1ohr/1ohr_pocket.pdb
REMARK  212 active torsions:
REMARK  status: ('A' for Active; 'I' for Inactive)
REMARK    1  A    between atoms: _1  and  _3
REMARK    2  A    between atoms: _3  and  _4
REMARK    3  A    between atoms: _3  and  _6
REMARK    4  A    between atoms: _6  and  _7
REMARK    5  A    between atoms: _7  and  _8
REMARK    6  A    between atoms: _8  and  _9
REMARK    7  A    between atoms: _18  and  _20
REMARK    8  A    between atoms: _20  and  _21
REMARK    9  A    between atoms: _20  and  _23
REMARK   10  A    between atoms: _23  and  _24
REMARK   11  A    between atoms: _27  and  _29
REMARK   12  A    between atoms: _29  and  _30
REMARK   13  A    between atoms: _29  and  _32
REMARK   14  A    between atoms: _32  and  _33
REMARK   15  A    between atoms: _36  and  _38
REMARK   16  A    between atoms: _38  and  _39
REMARK   17  A    between atoms: _38  and  _41
REMARK   18  A    between atoms: _41  and  _42
REMARK   19  A    between atoms: _45  and  _47
REMARK   20  A    between atoms: _47  and  _48
REMARK   21  A    between atoms: _47  and  _50
REMARK   22  A    between atoms: _50  and  _51
REMARK   23  A    between atoms: _54  and  _56
REMARK   24  A    between atoms: _56  and  _57
REMARK   25  A    between atoms: _59  and  _61
REMARK   26  A    between atoms: _61  and  _62
REMARK   27  A    between atoms: _65  and  _67
REMARK   28  A    between atoms: _67  and  _68
REMARK   29  A    between atoms: _67  and  _70
REMARK   30  A    between atoms: _70  and  _71
REMARK   31  A    between atoms: _74  and  _76
REMARK   32  A    between atoms: _76  and  _77
REMARK   33  A    between atoms: _76  and  _79
REMARK   34  A    between atoms: _79  and  _80
REMARK   35  A    between atoms: _83  and  _85
REMARK   36  A    between atoms: _85  and  _86
REMARK   37  A    between atoms: _85  and  _88
REMARK   38  A    between atoms: _88  and  _89
REMARK   39  A    between atoms: _92  and  _94
REMARK   40  A    between atoms: _94  and  _95
REMARK   41  A    between atoms: _94  and  _97
REMARK   42  A    between atoms: _100  and  _102
REMARK   43  A    between atoms: _102  and  _103
REMARK   44  A    between atoms: _102  and  _105
REMARK   45  A    between atoms: _105  and  _106
REMARK   46  A    between atoms: _106  and  _107
REMARK   47  A    between atoms: _109  and  _111
REMARK   48  A    between atoms: _111  and  _112
REMARK   49  A    between atoms: _111  and  _114
REMARK   50  A    between atoms: _114  and  _115
REMARK   51  A    between atoms: _118  and  _120
REMARK   52  A    between atoms: _120  and  _121
REMARK   53  A    between atoms: _123  and  _125
REMARK   54  A    between atoms: _125  and  _126
REMARK   55  A    between atoms: _128  and  _130
REMARK   56  A    between atoms: _130  and  _131
REMARK   57  A    between atoms: _130  and  _133
REMARK   58  A    between atoms: _133  and  _134
REMARK   59  A    between atoms: _137  and  _139
REMARK   60  A    between atoms: _139  and  _140
REMARK   61  A    between atoms: _142  and  _144
REMARK   62  A    between atoms: _144  and  _145
REMARK   63  A    between atoms: _147  and  _149
REMARK   64  A    between atoms: _149  and  _150
REMARK   65  A    between atoms: _149  and  _152
REMARK   66  A    between atoms: _152  and  _153
REMARK   67  A    between atoms: _156  and  _158
REMARK   68  A    between atoms: _158  and  _159
REMARK   69  A    between atoms: _158  and  _161
REMARK   70  A    between atoms: _161  and  _162
REMARK   71  A    between atoms: _166  and  _167
REMARK   72  A    between atoms: _172  and  _174
REMARK   73  A    between atoms: _174  and  _175
REMARK   74  A    between atoms: _174  and  _177
REMARK   75  A    between atoms: _177  and  _178
REMARK   76  A    between atoms: _182  and  _183
REMARK   77  A    between atoms: _188  and  _190
REMARK   78  A    between atoms: _190  and  _191
REMARK   79  A    between atoms: _190  and  _193
REMARK   80  A    between atoms: _196  and  _198
REMARK   81  A    between atoms: _198  and  _199
REMARK   82  A    between atoms: _198  and  _201
REMARK   83  A    between atoms: _201  and  _202
REMARK   84  A    between atoms: _207  and  _209
REMARK   85  A    between atoms: _209  and  _210
REMARK   86  A    between atoms: _209  and  _212
REMARK   87  A    between atoms: _212  and  _213
REMARK   88  A    between atoms: _216  and  _218
REMARK   89  A    between atoms: _218  and  _219
REMARK   90  A    between atoms: _218  and  _221
REMARK   91  A    between atoms: _221  and  _222
REMARK   92  A    between atoms: _225  and  _227
REMARK   93  A    between atoms: _227  and  _228
REMARK   94  A    between atoms: _230  and  _232
REMARK   95  A    between atoms: _232  and  _233
REMARK   96  A    between atoms: _232  and  _235
REMARK   97  A    between atoms: _235  and  _236
REMARK   98  A    between atoms: _236  and  _237
REMARK   99  A    between atoms: _237  and  _238
REMARK  100  A    between atoms: _247  and  _249
REMARK  101  A    between atoms: _249  and  _250
REMARK  102  A    between atoms: _249  and  _252
REMARK  103  A    between atoms: _252  and  _253
REMARK  104  A    between atoms: _258  and  _260
REMARK  105  A    between atoms: _260  and  _261
REMARK  106  A    between atoms: _260  and  _263
REMARK  107  A    between atoms: _263  and  _264
REMARK  108  A    between atoms: _264  and  _265
REMARK  109  A    between atoms: _265  and  _266
REMARK  110  A    between atoms: _275  and  _277
REMARK  111  A    between atoms: _277  and  _278
REMARK  112  A    between atoms: _277  and  _280
REMARK  113  A    between atoms: _280  and  _281
REMARK  114  A    between atoms: _284  and  _286
REMARK  115  A    between atoms: _286  and  _287
REMARK  116  A    between atoms: _286  and  _289
REMARK  117  A    between atoms: _289  and  _290
REMARK  118  A    between atoms: _293  and  _295
REMARK  119  A    between atoms: _295  and  _296
REMARK  120  A    between atoms: _295  and  _298
REMARK  121  A    between atoms: _298  and  _299
REMARK  122  A    between atoms: _302  and  _304
REMARK  123  A    between atoms: _304  and  _305
REMARK  124  A    between atoms: _304  and  _307
REMARK  125  A    between atoms: _307  and  _308
REMARK  126  A    between atoms: _311  and  _313
REMARK  127  A    between atoms: _313  and  _314
REMARK  128  A    between atoms: _313  and  _316
REMARK  129  A    between atoms: _316  and  _317
REMARK  130  A    between atoms: _320  and  _322
REMARK  131  A    between atoms: _322  and  _323
REMARK  132  A    between atoms: _325  and  _327
REMARK  133  A    between atoms: _327  and  _328
REMARK  134  A    between atoms: _331  and  _333
REMARK  135  A    between atoms: _333  and  _334
REMARK  136  A    between atoms: _333  and  _336
REMARK  137  A    between atoms: _336  and  _337
REMARK  138  A    between atoms: _340  and  _342
REMARK  139  A    between atoms: _342  and  _343
REMARK  140  A    between atoms: _342  and  _345
REMARK  141  A    between atoms: _345  and  _346
REMARK  142  A    between atoms: _349  and  _351
REMARK  143  A    between atoms: _351  and  _352
REMARK  144  A    between atoms: _351  and  _354
REMARK  145  A    between atoms: _354  and  _355
REMARK  146  A    between atoms: _358  and  _360
REMARK  147  A    between atoms: _360  and  _361
REMARK  148  A    between atoms: _360  and  _363
REMARK  149  A    between atoms: _366  and  _368
REMARK  150  A    between atoms: _368  and  _369
REMARK  151  A    between atoms: _368  and  _371
REMARK  152  A    between atoms: _371  and  _372
REMARK  153  A    between atoms: _372  and  _373
REMARK  154  A    between atoms: _375  and  _377
REMARK  155  A    between atoms: _377  and  _378
REMARK  156  A    between atoms: _377  and  _380
REMARK  157  A    between atoms: _380  and  _381
REMARK  158  A    between atoms: _384  and  _386
REMARK  159  A    between atoms: _386  and  _387
REMARK  160  A    between atoms: _389  and  _391
REMARK  161  A    between atoms: _391  and  _392
REMARK  162  A    between atoms: _394  and  _396
REMARK  163  A    between atoms: _396  and  _397
REMARK  164  A    between atoms: _396  and  _399
REMARK  165  A    between atoms: _399  and  _400
REMARK  166  A    between atoms: _403  and  _405
REMARK  167  A    between atoms: _405  and  _406
REMARK  168  A    between atoms: _408  and  _410
REMARK  169  A    between atoms: _410  and  _411
REMARK  170  A    between atoms: _413  and  _415
REMARK  171  A    between atoms: _415  and  _416
REMARK  172  A    between atoms: _415  and  _418
REMARK  173  A    between atoms: _418  and  _419
REMARK  174  A    between atoms: _425  and  _427
REMARK  175  A    between atoms: _427  and  _428
REMARK  176  A    between atoms: _427  and  _430
REMARK  177  A    between atoms: _430  and  _431
REMARK  178  A    between atoms: _434  and  _436
REMARK  179  A    between atoms: _436  and  _437
REMARK  180  A    between atoms: _436  and  _439
REMARK  181  A    between atoms: _442  and  _444
REMARK  182  A    between atoms: _444  and  _445
REMARK  183  A    between atoms: _444  and  _447
REMARK  184  A    between atoms: _447  and  _448
REMARK  185  A    between atoms: _451  and  _453
REMARK  186  A    between atoms: _453  and  _454
REMARK  187  A    between atoms: _453  and  _456
REMARK  188  A    between atoms: _456  and  _457
REMARK  189  A    between atoms: _461  and  _462
REMARK  190  A    between atoms: _467  and  _469
REMARK  191  A    between atoms: _469  and  _470
REMARK  192  A    between atoms: _469  and  _472
REMARK  193  A    between atoms: _475  and  _477
REMARK  194  A    between atoms: _477  and  _478
REMARK  195  A    between atoms: _477  and  _480
REMARK  196  A    between atoms: _480  and  _481
REMARK  197  A    between atoms: _486  and  _488
REMARK  198  A    between atoms: _488  and  _489
REMARK  199  A    between atoms: _488  and  _491
REMARK  200  A    between atoms: _491  and  _492
REMARK  201  A    between atoms: _495  and  _497
REMARK  202  A    between atoms: _497  and  _498
REMARK  203  A    between atoms: _497  and  _500
REMARK  204  A    between atoms: _500  and  _501
REMARK  205  A    between atoms: _504  and  _506
REMARK  206  A    between atoms: _506  and  _507
REMARK  207  A    between atoms: _509  and  _511
REMARK  208  A    between atoms: _511  and  _512
REMARK  209  A    between atoms: _511  and  _514
REMARK  210  A    between atoms: _514  and  _515
REMARK  211  A    between atoms: _515  and  _516
REMARK  212  A    between atoms: _516  and  _517
REMARK                            x       y       z     vdW  Elec       q    Type
REMARK                         _______ _______ _______ _____ _____    ______ ____
ROOT
ATOM      1  O   HOH     1       5.076   7.422  15.567  0.00  0.00    +0.000 OA
ENDROOT
TORSDOF 0
REMARK  Name = ../refined-set-2016/1ohr/1ohr_pocket.pdb
REMARK  212 active torsions:
REMARK  status: ('A' for Active; 'I' for Inactive)
REMARK    1  A    between atoms: _1  and  _3
REMARK    2  A    between atoms: _3  and  _4
REMARK    3  A    between atoms: _3  and  _6
REMARK    4  A    between atoms: _6  and  _7
REMARK    5  A    between atoms: _7  and  _8
REMARK    6  A    between atoms: _8  and  _9
REMARK    7  A    between atoms: _18  and  _20
REMARK    8  A    between atoms: _20  and  _21
REMARK    9  A    between atoms: _20  and  _23
REMARK   10  A    between atoms: _23  and  _24
REMARK   11  A    between atoms: _27  and  _29
REMARK   12  A    between atoms: _29  and  _30
REMARK   13  A    between atoms: _29  and  _32
REMARK   14  A    between atoms: _32  and  _33
REMARK   15  A    between atoms: _36  and  _38
REMARK   16  A    between atoms: _38  and  _39
REMARK   17  A    between atoms: _38  and  _41
REMARK   18  A    between atoms: _41  and  _42
REMARK   19  A    between atoms: _45  and  _47
REMARK   20  A    between atoms: _47  and  _48
REMARK   21  A    between atoms: _47  and  _50
REMARK   22  A    between atoms: _50  and  _51
REMARK   23  A    between atoms: _54  and  _56
REMARK   24  A    between atoms: _56  and  _57
REMARK   25  A    between atoms: _59  and  _61
REMARK   26  A    between atoms: _61  and  _62
REMARK   27  A    between atoms: _65  and  _67
REMARK   28  A    between atoms: _67  and  _68
REMARK   29  A    between atoms: _67  and  _70
REMARK   30  A    between atoms: _70  and  _71
REMARK   31  A    between atoms: _74  and  _76
REMARK   32  A    between atoms: _76  and  _77
REMARK   33  A    between atoms: _76  and  _79
REMARK   34  A    between atoms: _79  and  _80
REMARK   35  A    between atoms: _83  and  _85
REMARK   36  A    between atoms: _85  and  _86
REMARK   37  A    between atoms: _85  and  _88
REMARK   38  A    between atoms: _88  and  _89
REMARK   39  A    between atoms: _92  and  _94
REMARK   40  A    between atoms: _94  and  _95
REMARK   41  A    between atoms: _94  and  _97
REMARK   42  A    between atoms: _100  and  _102
REMARK   43  A    between atoms: _102  and  _103
REMARK   44  A    between atoms: _102  and  _105
REMARK   45  A    between atoms: _105  and  _106
REMARK   46  A    between atoms: _106  and  _107
REMARK   47  A    between atoms: _109  and  _111
REMARK   48  A    between atoms: _111  and  _112
REMARK   49  A    between atoms: _111  and  _114
REMARK   50  A    between atoms: _114  and  _115
REMARK   51  A    between atoms: _118  and  _120
REMARK   52  A    between atoms: _120  and  _121
REMARK   53  A    between atoms: _123  and  _125
REMARK   54  A    between atoms: _125  and  _126
REMARK   55  A    between atoms: _128  and  _130
REMARK   56  A    between atoms: _130  and  _131
REMARK   57  A    between atoms: _130  and  _133
REMARK   58  A    between atoms: _133  and  _134
REMARK   59  A    between atoms: _137  and  _139
REMARK   60  A    between atoms: _139  and  _140
REMARK   61  A    between atoms: _142  and  _144
REMARK   62  A    between atoms: _144  and  _145
REMARK   63  A    between atoms: _147  and  _149
REMARK   64  A    between atoms: _149  and  _150
REMARK   65  A    between atoms: _149  and  _152
REMARK   66  A    between atoms: _152  and  _153
REMARK   67  A    between atoms: _156  and  _158
REMARK   68  A    between atoms: _158  and  _159
REMARK   69  A    between atoms: _158  and  _161
REMARK   70  A    between atoms: _161  and  _162
REMARK   71  A    between atoms: _166  and  _167
REMARK   72  A    between atoms: _172  and  _174
REMARK   73  A    between atoms: _174  and  _175
REMARK   74  A    between atoms: _174  and  _177
REMARK   75  A    between atoms: _177  and  _178
REMARK   76  A    between atoms: _182  and  _183
REMARK   77  A    between atoms: _188  and  _190
REMARK   78  A    between atoms: _190  and  _191
REMARK   79  A    between atoms: _190  and  _193
REMARK   80  A    between atoms: _196  and  _198
REMARK   81  A    between atoms: _198  and  _199
REMARK   82  A    between atoms: _198  and  _201
REMARK   83  A    between atoms: _201  and  _202
REMARK   84  A    between atoms: _207  and  _209
REMARK   85  A    between atoms: _209  and  _210
REMARK   86  A    between atoms: _209  and  _212
REMARK   87  A    between atoms: _212  and  _213
REMARK   88  A    between atoms: _216  and  _218
REMARK   89  A    between atoms: _218  and  _219
REMARK   90  A    between atoms: _218  and  _221
REMARK   91  A    between atoms: _221  and  _222
REMARK   92  A    between atoms: _225  and  _227
REMARK   93  A    between atoms: _227  and  _228
REMARK   94  A    between atoms: _230  and  _232
REMARK   95  A    between atoms: _232  and  _233
REMARK   96  A    between atoms: _232  and  _235
REMARK   97  A    between atoms: _235  and  _236
REMARK   98  A    between atoms: _236  and  _237
REMARK   99  A    between atoms: _237  and  _238
REMARK  100  A    between atoms: _247  and  _249
REMARK  101  A    between atoms: _249  and  _250
REMARK  102  A    between atoms: _249  and  _252
REMARK  103  A    between atoms: _252  and  _253
REMARK  104  A    between atoms: _258  and  _260
REMARK  105  A    between atoms: _260  and  _261
REMARK  106  A    between atoms: _260  and  _263
REMARK  107  A    between atoms: _263  and  _264
REMARK  108  A    between atoms: _264  and  _265
REMARK  109  A    between atoms: _265  and  _266
REMARK  110  A    between atoms: _275  and  _277
REMARK  111  A    between atoms: _277  and  _278
REMARK  112  A    between atoms: _277  and  _280
REMARK  113  A    between atoms: _280  and  _281
REMARK  114  A    between atoms: _284  and  _286
REMARK  115  A    between atoms: _286  and  _287
REMARK  116  A    between atoms: _286  and  _289
REMARK  117  A    between atoms: _289  and  _290
REMARK  118  A    between atoms: _293  and  _295
REMARK  119  A    between atoms: _295  and  _296
REMARK  120  A    between atoms: _295  and  _298
REMARK  121  A    between atoms: _298  and  _299
REMARK  122  A    between atoms: _302  and  _304
REMARK  123  A    between atoms: _304  and  _305
REMARK  124  A    between atoms: _304  and  _307
REMARK  125  A    between atoms: _307  and  _308
REMARK  126  A    between atoms: _311  and  _313
REMARK  127  A    between atoms: _313  and  _314
REMARK  128  A    between atoms: _313  and  _316
REMARK  129  A    between atoms: _316  and  _317
REMARK  130  A    between atoms: _320  and  _322
REMARK  131  A    between atoms: _322  and  _323
REMARK  132  A    between atoms: _325  and  _327
REMARK  133  A    between atoms: _327  and  _328
REMARK  134  A    between atoms: _331  and  _333
REMARK  135  A    between atoms: _333  and  _334
REMARK  136  A    between atoms: _333  and  _336
REMARK  137  A    between atoms: _336  and  _337
REMARK  138  A    between atoms: _340  and  _342
REMARK  139  A    between atoms: _342  and  _343
REMARK  140  A    between atoms: _342  and  _345
REMARK  141  A    between atoms: _345  and  _346
REMARK  142  A    between atoms: _349  and  _351
REMARK  143  A    between atoms: _351  and  _352
REMARK  144  A    between atoms: _351  and  _354
REMARK  145  A    between atoms: _354  and  _355
REMARK  146  A    between atoms: _358  and  _360
REMARK  147  A    between atoms: _360  and  _361
REMARK  148  A    between atoms: _360  and  _363
REMARK  149  A    between atoms: _366  and  _368
REMARK  150  A    between atoms: _368  and  _369
REMARK  151  A    between atoms: _368  and  _371
REMARK  152  A    between atoms: _371  and  _372
REMARK  153  A    between atoms: _372  and  _373
REMARK  154  A    between atoms: _375  and  _377
REMARK  155  A    between atoms: _377  and  _378
REMARK  156  A    between atoms: _377  and  _380
REMARK  157  A    between atoms: _380  and  _381
REMARK  158  A    between atoms: _384  and  _386
REMARK  159  A    between atoms: _386  and  _387
REMARK  160  A    between atoms: _389  and  _391
REMARK  161  A    between atoms: _391  and  _392
REMARK  162  A    between atoms: _394  and  _396
REMARK  163  A    between atoms: _396  and  _397
REMARK  164  A    between atoms: _396  and  _399
REMARK  165  A    between atoms: _399  and  _400
REMARK  166  A    between atoms: _403  and  _405
REMARK  167  A    between atoms: _405  and  _406
REMARK  168  A    between atoms: _408  and  _410
REMARK  169  A    between atoms: _410  and  _411
REMARK  170  A    between atoms: _413  and  _415
REMARK  171  A    between atoms: _415  and  _416
REMARK  172  A    between atoms: _415  and  _418
REMARK  173  A    between atoms: _418  and  _419
REMARK  174  A    between atoms: _425  and  _427
REMARK  175  A    between atoms: _427  and  _428
REMARK  176  A    between atoms: _427  and  _430
REMARK  177  A    between atoms: _430  and  _431
REMARK  178  A    between atoms: _434  and  _436
REMARK  179  A    between atoms: _436  and  _437
REMARK  180  A    between atoms: _436  and  _439
REMARK  181  A    between atoms: _442  and  _444
REMARK  182  A    between atoms: _444  and  _445
REMARK  183  A    between atoms: _444  and  _447
REMARK  184  A    between atoms: _447  and  _448
REMARK  185  A    between atoms: _451  and  _453
REMARK  186  A    between atoms: _453  and  _454
REMARK  187  A    between atoms: _453  and  _456
REMARK  188  A    between atoms: _456  and  _457
REMARK  189  A    between atoms: _461  and  _462
REMARK  190  A    between atoms: _467  and  _469
REMARK  191  A    between atoms: _469  and  _470
REMARK  192  A    between atoms: _469  and  _472
REMARK  193  A    between atoms: _475  and  _477
REMARK  194  A    between atoms: _477  and  _478
REMARK  195  A    between atoms: _477  and  _480
REMARK  196  A    between atoms: _480  and  _481
REMARK  197  A    between atoms: _486  and  _488
REMARK  198  A    between atoms: _488  and  _489
REMARK  199  A    between atoms: _488  and  _491
REMARK  200  A    between atoms: _491  and  _492
REMARK  201  A    between atoms: _495  and  _497
REMARK  202  A    between atoms: _497  and  _498
REMARK  203  A    between atoms: _497  and  _500
REMARK  204  A    between atoms: _500  and  _501
REMARK  205  A    between atoms: _504  and  _506
REMARK  206  A    between atoms: _506  and  _507
REMARK  207  A    between atoms: _509  and  _511
REMARK  208  A    between atoms: _511  and  _512
REMARK  209  A    between atoms: _511  and  _514
REMARK  210  A    between atoms: _514  and  _515
REMARK  211  A    between atoms: _515  and  _516
REMARK  212  A    between atoms: _516  and  _517
REMARK                            x       y       z     vdW  Elec       q    Type
REMARK                         _______ _______ _______ _____ _____    ______ ____
ROOT
ATOM      1  O   HOH     1       5.335   5.935  13.125  0.00  0.00    +0.000 OA
ENDROOT
TORSDOF 0
REMARK  Name = ../refined-set-2016/1ohr/1ohr_pocket.pdb
REMARK  212 active torsions:
REMARK  status: ('A' for Active; 'I' for Inactive)
REMARK    1  A    between atoms: _1  and  _3
REMARK    2  A    between atoms: _3  and  _4
REMARK    3  A    between atoms: _3  and  _6
REMARK    4  A    between atoms: _6  and  _7
REMARK    5  A    between atoms: _7  and  _8
REMARK    6  A    between atoms: _8  and  _9
REMARK    7  A    between atoms: _18  and  _20
REMARK    8  A    between atoms: _20  and  _21
REMARK    9  A    between atoms: _20  and  _23
REMARK   10  A    between atoms: _23  and  _24
REMARK   11  A    between atoms: _27  and  _29
REMARK   12  A    between atoms: _29  and  _30
REMARK   13  A    between atoms: _29  and  _32
REMARK   14  A    between atoms: _32  and  _33
REMARK   15  A    between atoms: _36  and  _38
REMARK   16  A    between atoms: _38  and  _39
REMARK   17  A    between atoms: _38  and  _41
REMARK   18  A    between atoms: _41  and  _42
REMARK   19  A    between atoms: _45  and  _47
REMARK   20  A    between atoms: _47  and  _48
REMARK   21  A    between atoms: _47  and  _50
REMARK   22  A    between atoms: _50  and  _51
REMARK   23  A    between atoms: _54  and  _56
REMARK   24  A    between atoms: _56  and  _57
REMARK   25  A    between atoms: _59  and  _61
REMARK   26  A    between atoms: _61  and  _62
REMARK   27  A    between atoms: _65  and  _67
REMARK   28  A    between atoms: _67  and  _68
REMARK   29  A    between atoms: _67  and  _70
REMARK   30  A    between atoms: _70  and  _71
REMARK   31  A    between atoms: _74  and  _76
REMARK   32  A    between atoms: _76  and  _77
REMARK   33  A    between atoms: _76  and  _79
REMARK   34  A    between atoms: _79  and  _80
REMARK   35  A    between atoms: _83  and  _85
REMARK   36  A    between atoms: _85  and  _86
REMARK   37  A    between atoms: _85  and  _88
REMARK   38  A    between atoms: _88  and  _89
REMARK   39  A    between atoms: _92  and  _94
REMARK   40  A    between atoms: _94  and  _95
REMARK   41  A    between atoms: _94  and  _97
REMARK   42  A    between atoms: _100  and  _102
REMARK   43  A    between atoms: _102  and  _103
REMARK   44  A    between atoms: _102  and  _105
REMARK   45  A    between atoms: _105  and  _106
REMARK   46  A    between atoms: _106  and  _107
REMARK   47  A    between atoms: _109  and  _111
REMARK   48  A    between atoms: _111  and  _112
REMARK   49  A    between atoms: _111  and  _114
REMARK   50  A    between atoms: _114  and  _115
REMARK   51  A    between atoms: _118  and  _120
REMARK   52  A    between atoms: _120  and  _121
REMARK   53  A    between atoms: _123  and  _125
REMARK   54  A    between atoms: _125  and  _126
REMARK   55  A    between atoms: _128  and  _130
REMARK   56  A    between atoms: _130  and  _131
REMARK   57  A    between atoms: _130  and  _133
REMARK   58  A    between atoms: _133  and  _134
REMARK   59  A    between atoms: _137  and  _139
REMARK   60  A    between atoms: _139  and  _140
REMARK   61  A    between atoms: _142  and  _144
REMARK   62  A    between atoms: _144  and  _145
REMARK   63  A    between atoms: _147  and  _149
REMARK   64  A    between atoms: _149  and  _150
REMARK   65  A    between atoms: _149  and  _152
REMARK   66  A    between atoms: _152  and  _153
REMARK   67  A    between atoms: _156  and  _158
REMARK   68  A    between atoms: _158  and  _159
REMARK   69  A    between atoms: _158  and  _161
REMARK   70  A    between atoms: _161  and  _162
REMARK   71  A    between atoms: _166  and  _167
REMARK   72  A    between atoms: _172  and  _174
REMARK   73  A    between atoms: _174  and  _175
REMARK   74  A    between atoms: _174  and  _177
REMARK   75  A    between atoms: _177  and  _178
REMARK   76  A    between atoms: _182  and  _183
REMARK   77  A    between atoms: _188  and  _190
REMARK   78  A    between atoms: _190  and  _191
REMARK   79  A    between atoms: _190  and  _193
REMARK   80  A    between atoms: _196  and  _198
REMARK   81  A    between atoms: _198  and  _199
REMARK   82  A    between atoms: _198  and  _201
REMARK   83  A    between atoms: _201  and  _202
REMARK   84  A    between atoms: _207  and  _209
REMARK   85  A    between atoms: _209  and  _210
REMARK   86  A    between atoms: _209  and  _212
REMARK   87  A    between atoms: _212  and  _213
REMARK   88  A    between atoms: _216  and  _218
REMARK   89  A    between atoms: _218  and  _219
REMARK   90  A    between atoms: _218  and  _221
REMARK   91  A    between atoms: _221  and  _222
REMARK   92  A    between atoms: _225  and  _227
REMARK   93  A    between atoms: _227  and  _228
REMARK   94  A    between atoms: _230  and  _232
REMARK   95  A    between atoms: _232  and  _233
REMARK   96  A    between atoms: _232  and  _235
REMARK   97  A    between atoms: _235  and  _236
REMARK   98  A    between atoms: _236  and  _237
REMARK   99  A    between atoms: _237  and  _238
REMARK  100  A    between atoms: _247  and  _249
REMARK  101  A    between atoms: _249  and  _250
REMARK  102  A    between atoms: _249  and  _252
REMARK  103  A    between atoms: _252  and  _253
REMARK  104  A    between atoms: _258  and  _260
REMARK  105  A    between atoms: _260  and  _261
REMARK  106  A    between atoms: _260  and  _263
REMARK  107  A    between atoms: _263  and  _264
REMARK  108  A    between atoms: _264  and  _265
REMARK  109  A    between atoms: _265  and  _266
REMARK  110  A    between atoms: _275  and  _277
REMARK  111  A    between atoms: _277  and  _278
REMARK  112  A    between atoms: _277  and  _280
REMARK  113  A    between atoms: _280  and  _281
REMARK  114  A    between atoms: _284  and  _286
REMARK  115  A    between atoms: _286  and  _287
REMARK  116  A    between atoms: _286  and  _289
REMARK  117  A    between atoms: _289  and  _290
REMARK  118  A    between atoms: _293  and  _295
REMARK  119  A    between atoms: _295  and  _296
REMARK  120  A    between atoms: _295  and  _298
REMARK  121  A    between atoms: _298  and  _299
REMARK  122  A    between atoms: _302  and  _304
REMARK  123  A    between atoms: _304  and  _305
REMARK  124  A    between atoms: _304  and  _307
REMARK  125  A    between atoms: _307  and  _308
REMARK  126  A    between atoms: _311  and  _313
REMARK  127  A    between atoms: _313  and  _314
REMARK  128  A    between atoms: _313  and  _316
REMARK  129  A    between atoms: _316  and  _317
REMARK  130  A    between atoms: _320  and  _322
REMARK  131  A    between atoms: _322  and  _323
REMARK  132  A    between atoms: _325  and  _327
REMARK  133  A    between atoms: _327  and  _328
REMARK  134  A    between atoms: _331  and  _333
REMARK  135  A    between atoms: _333  and  _334
REMARK  136  A    between atoms: _333  and  _336
REMARK  137  A    between atoms: _336  and  _337
REMARK  138  A    between atoms: _340  and  _342
REMARK  139  A    between atoms: _342  and  _343
REMARK  140  A    between atoms: _342  and  _345
REMARK  141  A    between atoms: _345  and  _346
REMARK  142  A    between atoms: _349  and  _351
REMARK  143  A    between atoms: _351  and  _352
REMARK  144  A    between atoms: _351  and  _354
REMARK  145  A    between atoms: _354  and  _355
REMARK  146  A    between atoms: _358  and  _360
REMARK  147  A    between atoms: _360  and  _361
REMARK  148  A    between atoms: _360  and  _363
REMARK  149  A    between atoms: _366  and  _368
REMARK  150  A    between atoms: _368  and  _369
REMARK  151  A    between atoms: _368  and  _371
REMARK  152  A    between atoms: _371  and  _372
REMARK  153  A    between atoms: _372  and  _373
REMARK  154  A    between atoms: _375  and  _377
REMARK  155  A    between atoms: _377  and  _378
REMARK  156  A    between atoms: _377  and  _380
REMARK  157  A    between atoms: _380  and  _381
REMARK  158  A    between atoms: _384  and  _386
REMARK  159  A    between atoms: _386  and  _387
REMARK  160  A    between atoms: _389  and  _391
REMARK  161  A    between atoms: _391  and  _392
REMARK  162  A    between atoms: _394  and  _396
REMARK  163  A    between atoms: _396  and  _397
REMARK  164  A    between atoms: _396  and  _399
REMARK  165  A    between atoms: _399  and  _400
REMARK  166  A    between atoms: _403  and  _405
REMARK  167  A    between atoms: _405  and  _406
REMARK  168  A    between atoms: _408  and  _410
REMARK  169  A    between atoms: _410  and  _411
REMARK  170  A    between atoms: _413  and  _415
REMARK  171  A    between atoms: _415  and  _416
REMARK  172  A    between atoms: _415  and  _418
REMARK  173  A    between atoms: _418  and  _419
REMARK  174  A    between atoms: _425  and  _427
REMARK  175  A    between atoms: _427  and  _428
REMARK  176  A    between atoms: _427  and  _430
REMARK  177  A    between atoms: _430  and  _431
REMARK  178  A    between atoms: _434  and  _436
REMARK  179  A    between atoms: _436  and  _437
REMARK  180  A    between atoms: _436  and  _439
REMARK  181  A    between atoms: _442  and  _444
REMARK  182  A    between atoms: _444  and  _445
REMARK  183  A    between atoms: _444  and  _447
REMARK  184  A    between atoms: _447  and  _448
REMARK  185  A    between atoms: _451  and  _453
REMARK  186  A    between atoms: _453  and  _454
REMARK  187  A    between atoms: _453  and  _456
REMARK  188  A    between atoms: _456  and  _457
REMARK  189  A    between atoms: _461  and  _462
REMARK  190  A    between atoms: _467  and  _469
REMARK  191  A    between atoms: _469  and  _470
REMARK  192  A    between atoms: _469  and  _472
REMARK  193  A    between atoms: _475  and  _477
REMARK  194  A    between atoms: _477  and  _478
REMARK  195  A    between atoms: _477  and  _480
REMARK  196  A    between atoms: _480  and  _481
REMARK  197  A    between atoms: _486  and  _488
REMARK  198  A    between atoms: _488  and  _489
REMARK  199  A    between atoms: _488  and  _491
REMARK  200  A    between atoms: _491  and  _492
REMARK  201  A    between atoms: _495  and  _497
REMARK  202  A    between atoms: _497  and  _498
REMARK  203  A    between atoms: _497  and  _500
REMARK  204  A    between atoms: _500  and  _501
REMARK  205  A    between atoms: _504  and  _506
REMARK  206  A    between atoms: _506  and  _507
REMARK  207  A    between atoms: _509  and  _511
REMARK  208  A    between atoms: _511  and  _512
REMARK  209  A    between atoms: _511  and  _514
REMARK  210  A    between atoms: _514  and  _515
REMARK  211  A    between atoms: _515  and  _516
REMARK  212  A    between atoms: _516  and  _517
REMARK                            x       y       z     vdW  Elec       q    Type
REMARK                         _______ _______ _______ _____ _____    ______ ____
ROOT
ATOM      1  O   HOH     1       7.441  -5.872  18.759  0.00  0.00    +0.000 OA
ENDROOT
TORSDOF 0
REMARK  Name = ../refined-set-2016/1ohr/1ohr_pocket.pdb
REMARK  212 active torsions:
REMARK  status: ('A' for Active; 'I' for Inactive)
REMARK    1  A    between atoms: _1  and  _3
REMARK    2  A    between atoms: _3  and  _4
REMARK    3  A    between atoms: _3  and  _6
REMARK    4  A    between atoms: _6  and  _7
REMARK    5  A    between atoms: _7  and  _8
REMARK    6  A    between atoms: _8  and  _9
REMARK    7  A    between atoms: _18  and  _20
REMARK    8  A    between atoms: _20  and  _21
REMARK    9  A    between atoms: _20  and  _23
REMARK   10  A    between atoms: _23  and  _24
REMARK   11  A    between atoms: _27  and  _29
REMARK   12  A    between atoms: _29  and  _30
REMARK   13  A    between atoms: _29  and  _32
REMARK   14  A    between atoms: _32  and  _33
REMARK   15  A    between atoms: _36  and  _38
REMARK   16  A    between atoms: _38  and  _39
REMARK   17  A    between atoms: _38  and  _41
REMARK   18  A    between atoms: _41  and  _42
REMARK   19  A    between atoms: _45  and  _47
REMARK   20  A    between atoms: _47  and  _48
REMARK   21  A    between atoms: _47  and  _50
REMARK   22  A    between atoms: _50  and  _51
REMARK   23  A    between atoms: _54  and  _56
REMARK   24  A    between atoms: _56  and  _57
REMARK   25  A    between atoms: _59  and  _61
REMARK   26  A    between atoms: _61  and  _62
REMARK   27  A    between atoms: _65  and  _67
REMARK   28  A    between atoms: _67  and  _68
REMARK   29  A    between atoms: _67  and  _70
REMARK   30  A    between atoms: _70  and  _71
REMARK   31  A    between atoms: _74  and  _76
REMARK   32  A    between atoms: _76  and  _77
REMARK   33  A    between atoms: _76  and  _79
REMARK   34  A    between atoms: _79  and  _80
REMARK   35  A    between atoms: _83  and  _85
REMARK   36  A    between atoms: _85  and  _86
REMARK   37  A    between atoms: _85  and  _88
REMARK   38  A    between atoms: _88  and  _89
REMARK   39  A    between atoms: _92  and  _94
REMARK   40  A    between atoms: _94  and  _95
REMARK   41  A    between atoms: _94  and  _97
REMARK   42  A    between atoms: _100  and  _102
REMARK   43  A    between atoms: _102  and  _103
REMARK   44  A    between atoms: _102  and  _105
REMARK   45  A    between atoms: _105  and  _106
REMARK   46  A    between atoms: _106  and  _107
REMARK   47  A    between atoms: _109  and  _111
REMARK   48  A    between atoms: _111  and  _112
REMARK   49  A    between atoms: _111  and  _114
REMARK   50  A    between atoms: _114  and  _115
REMARK   51  A    between atoms: _118  and  _120
REMARK   52  A    between atoms: _120  and  _121
REMARK   53  A    between atoms: _123  and  _125
REMARK   54  A    between atoms: _125  and  _126
REMARK   55  A    between atoms: _128  and  _130
REMARK   56  A    between atoms: _130  and  _131
REMARK   57  A    between atoms: _130  and  _133
REMARK   58  A    between atoms: _133  and  _134
REMARK   59  A    between atoms: _137  and  _139
REMARK   60  A    between atoms: _139  and  _140
REMARK   61  A    between atoms: _142  and  _144
REMARK   62  A    between atoms: _144  and  _145
REMARK   63  A    between atoms: _147  and  _149
REMARK   64  A    between atoms: _149  and  _150
REMARK   65  A    between atoms: _149  and  _152
REMARK   66  A    between atoms: _152  and  _153
REMARK   67  A    between atoms: _156  and  _158
REMARK   68  A    between atoms: _158  and  _159
REMARK   69  A    between atoms: _158  and  _161
REMARK   70  A    between atoms: _161  and  _162
REMARK   71  A    between atoms: _166  and  _167
REMARK   72  A    between atoms: _172  and  _174
REMARK   73  A    between atoms: _174  and  _175
REMARK   74  A    between atoms: _174  and  _177
REMARK   75  A    between atoms: _177  and  _178
REMARK   76  A    between atoms: _182  and  _183
REMARK   77  A    between atoms: _188  and  _190
REMARK   78  A    between atoms: _190  and  _191
REMARK   79  A    between atoms: _190  and  _193
REMARK   80  A    between atoms: _196  and  _198
REMARK   81  A    between atoms: _198  and  _199
REMARK   82  A    between atoms: _198  and  _201
REMARK   83  A    between atoms: _201  and  _202
REMARK   84  A    between atoms: _207  and  _209
REMARK   85  A    between atoms: _209  and  _210
REMARK   86  A    between atoms: _209  and  _212
REMARK   87  A    between atoms: _212  and  _213
REMARK   88  A    between atoms: _216  and  _218
REMARK   89  A    between atoms: _218  and  _219
REMARK   90  A    between atoms: _218  and  _221
REMARK   91  A    between atoms: _221  and  _222
REMARK   92  A    between atoms: _225  and  _227
REMARK   93  A    between atoms: _227  and  _228
REMARK   94  A    between atoms: _230  and  _232
REMARK   95  A    between atoms: _232  and  _233
REMARK   96  A    between atoms: _232  and  _235
REMARK   97  A    between atoms: _235  and  _236
REMARK   98  A    between atoms: _236  and  _237
REMARK   99  A    between atoms: _237  and  _238
REMARK  100  A    between atoms: _247  and  _249
REMARK  101  A    between atoms: _249  and  _250
REMARK  102  A    between atoms: _249  and  _252
REMARK  103  A    between atoms: _252  and  _253
REMARK  104  A    between atoms: _258  and  _260
REMARK  105  A    between atoms: _260  and  _261
REMARK  106  A    between atoms: _260  and  _263
REMARK  107  A    between atoms: _263  and  _264
REMARK  108  A    between atoms: _264  and  _265
REMARK  109  A    between atoms: _265  and  _266
REMARK  110  A    between atoms: _275  and  _277
REMARK  111  A    between atoms: _277  and  _278
REMARK  112  A    between atoms: _277  and  _280
REMARK  113  A    between atoms: _280  and  _281
REMARK  114  A    between atoms: _284  and  _286
REMARK  115  A    between atoms: _286  and  _287
REMARK  116  A    between atoms: _286  and  _289
REMARK  117  A    between atoms: _289  and  _290
REMARK  118  A    between atoms: _293  and  _295
REMARK  119  A    between atoms: _295  and  _296
REMARK  120  A    between atoms: _295  and  _298
REMARK  121  A    between atoms: _298  and  _299
REMARK  122  A    between atoms: _302  and  _304
REMARK  123  A    between atoms: _304  and  _305
REMARK  124  A    between atoms: _304  and  _307
REMARK  125  A    between atoms: _307  and  _308
REMARK  126  A    between atoms: _311  and  _313
REMARK  127  A    between atoms: _313  and  _314
REMARK  128  A    between atoms: _313  and  _316
REMARK  129  A    between atoms: _316  and  _317
REMARK  130  A    between atoms: _320  and  _322
REMARK  131  A    between atoms: _322  and  _323
REMARK  132  A    between atoms: _325  and  _327
REMARK  133  A    between atoms: _327  and  _328
REMARK  134  A    between atoms: _331  and  _333
REMARK  135  A    between atoms: _333  and  _334
REMARK  136  A    between atoms: _333  and  _336
REMARK  137  A    between atoms: _336  and  _337
REMARK  138  A    between atoms: _340  and  _342
REMARK  139  A    between atoms: _342  and  _343
REMARK  140  A    between atoms: _342  and  _345
REMARK  141  A    between atoms: _345  and  _346
REMARK  142  A    between atoms: _349  and  _351
REMARK  143  A    between atoms: _351  and  _352
REMARK  144  A    between atoms: _351  and  _354
REMARK  145  A    between atoms: _354  and  _355
REMARK  146  A    between atoms: _358  and  _360
REMARK  147  A    between atoms: _360  and  _361
REMARK  148  A    between atoms: _360  and  _363
REMARK  149  A    between atoms: _366  and  _368
REMARK  150  A    between atoms: _368  and  _369
REMARK  151  A    between atoms: _368  and  _371
REMARK  152  A    between atoms: _371  and  _372
REMARK  153  A    between atoms: _372  and  _373
REMARK  154  A    between atoms: _375  and  _377
REMARK  155  A    between atoms: _377  and  _378
REMARK  156  A    between atoms: _377  and  _380
REMARK  157  A    between atoms: _380  and  _381
REMARK  158  A    between atoms: _384  and  _386
REMARK  159  A    between atoms: _386  and  _387
REMARK  160  A    between atoms: _389  and  _391
REMARK  161  A    between atoms: _391  and  _392
REMARK  162  A    between atoms: _394  and  _396
REMARK  163  A    between atoms: _396  and  _397
REMARK  164  A    between atoms: _396  and  _399
REMARK  165  A    between atoms: _399  and  _400
REMARK  166  A    between atoms: _403  and  _405
REMARK  167  A    between atoms: _405  and  _406
REMARK  168  A    between atoms: _408  and  _410
REMARK  169  A    between atoms: _410  and  _411
REMARK  170  A    between atoms: _413  and  _415
REMARK  171  A    between atoms: _415  and  _416
REMARK  172  A    between atoms: _415  and  _418
REMARK  173  A    between atoms: _418  and  _419
REMARK  174  A    between atoms: _425  and  _427
REMARK  175  A    between atoms: _427  and  _428
REMARK  176  A    between atoms: _427  and  _430
REMARK  177  A    between atoms: _430  and  _431
REMARK  178  A    between atoms: _434  and  _436
REMARK  179  A    between atoms: _436  and  _437
REMARK  180  A    between atoms: _436  and  _439
REMARK  181  A    between atoms: _442  and  _444
REMARK  182  A    between atoms: _444  and  _445
REMARK  183  A    between atoms: _444  and  _447
REMARK  184  A    between atoms: _447  and  _448
REMARK  185  A    between atoms: _451  and  _453
REMARK  186  A    between atoms: _453  and  _454
REMARK  187  A    between atoms: _453  and  _456
REMARK  188  A    between atoms: _456  and  _457
REMARK  189  A    between atoms: _461  and  _462
REMARK  190  A    between atoms: _467  and  _469
REMARK  191  A    between atoms: _469  and  _470
REMARK  192  A    between atoms: _469  and  _472
REMARK  193  A    between atoms: _475  and  _477
REMARK  194  A    between atoms: _477  and  _478
REMARK  195  A    between atoms: _477  and  _480
REMARK  196  A    between atoms: _480  and  _481
REMARK  197  A    between atoms: _486  and  _488
REMARK  198  A    between atoms: _488  and  _489
REMARK  199  A    between atoms: _488  and  _491
REMARK  200  A    between atoms: _491  and  _492
REMARK  201  A    between atoms: _495  and  _497
REMARK  202  A    between atoms: _497  and  _498
REMARK  203  A    between atoms: _497  and  _500
REMARK  204  A    between atoms: _500  and  _501
REMARK  205  A    between atoms: _504  and  _506
REMARK  206  A    between atoms: _506  and  _507
REMARK  207  A    between atoms: _509  and  _511
REMARK  208  A    between atoms: _511  and  _512
REMARK  209  A    between atoms: _511  and  _514
REMARK  210  A    between atoms: _514  and  _515
REMARK  211  A    between atoms: _515  and  _516
REMARK  212  A    between atoms: _516  and  _517
REMARK                            x       y       z     vdW  Elec       q    Type
REMARK                         _______ _______ _______ _____ _____    ______ ____
ROOT
ATOM      1  O   HOH     1      -6.267   5.402  12.208  0.00  0.00    +0.000 OA
ENDROOT
TORSDOF 0
REMARK  Name = ../refined-set-2016/1ohr/1ohr_pocket.pdb
REMARK  212 active torsions:
REMARK  status: ('A' for Active; 'I' for Inactive)
REMARK    1  A    between atoms: _1  and  _3
REMARK    2  A    between atoms: _3  and  _4
REMARK    3  A    between atoms: _3  and  _6
REMARK    4  A    between atoms: _6  and  _7
REMARK    5  A    between atoms: _7  and  _8
REMARK    6  A    between atoms: _8  and  _9
REMARK    7  A    between atoms: _18  and  _20
REMARK    8  A    between atoms: _20  and  _21
REMARK    9  A    between atoms: _20  and  _23
REMARK   10  A    between atoms: _23  and  _24
REMARK   11  A    between atoms: _27  and  _29
REMARK   12  A    between atoms: _29  and  _30
REMARK   13  A    between atoms: _29  and  _32
REMARK   14  A    between atoms: _32  and  _33
REMARK   15  A    between atoms: _36  and  _38
REMARK   16  A    between atoms: _38  and  _39
REMARK   17  A    between atoms: _38  and  _41
REMARK   18  A    between atoms: _41  and  _42
REMARK   19  A    between atoms: _45  and  _47
REMARK   20  A    between atoms: _47  and  _48
REMARK   21  A    between atoms: _47  and  _50
REMARK   22  A    between atoms: _50  and  _51
REMARK   23  A    between atoms: _54  and  _56
REMARK   24  A    between atoms: _56  and  _57
REMARK   25  A    between atoms: _59  and  _61
REMARK   26  A    between atoms: _61  and  _62
REMARK   27  A    between atoms: _65  and  _67
REMARK   28  A    between atoms: _67  and  _68
REMARK   29  A    between atoms: _67  and  _70
REMARK   30  A    between atoms: _70  and  _71
REMARK   31  A    between atoms: _74  and  _76
REMARK   32  A    between atoms: _76  and  _77
REMARK   33  A    between atoms: _76  and  _79
REMARK   34  A    between atoms: _79  and  _80
REMARK   35  A    between atoms: _83  and  _85
REMARK   36  A    between atoms: _85  and  _86
REMARK   37  A    between atoms: _85  and  _88
REMARK   38  A    between atoms: _88  and  _89
REMARK   39  A    between atoms: _92  and  _94
REMARK   40  A    between atoms: _94  and  _95
REMARK   41  A    between atoms: _94  and  _97
REMARK   42  A    between atoms: _100  and  _102
REMARK   43  A    between atoms: _102  and  _103
REMARK   44  A    between atoms: _102  and  _105
REMARK   45  A    between atoms: _105  and  _106
REMARK   46  A    between atoms: _106  and  _107
REMARK   47  A    between atoms: _109  and  _111
REMARK   48  A    between atoms: _111  and  _112
REMARK   49  A    between atoms: _111  and  _114
REMARK   50  A    between atoms: _114  and  _115
REMARK   51  A    between atoms: _118  and  _120
REMARK   52  A    between atoms: _120  and  _121
REMARK   53  A    between atoms: _123  and  _125
REMARK   54  A    between atoms: _125  and  _126
REMARK   55  A    between atoms: _128  and  _130
REMARK   56  A    between atoms: _130  and  _131
REMARK   57  A    between atoms: _130  and  _133
REMARK   58  A    between atoms: _133  and  _134
REMARK   59  A    between atoms: _137  and  _139
REMARK   60  A    between atoms: _139  and  _140
REMARK   61  A    between atoms: _142  and  _144
REMARK   62  A    between atoms: _144  and  _145
REMARK   63  A    between atoms: _147  and  _149
REMARK   64  A    between atoms: _149  and  _150
REMARK   65  A    between atoms: _149  and  _152
REMARK   66  A    between atoms: _152  and  _153
REMARK   67  A    between atoms: _156  and  _158
REMARK   68  A    between atoms: _158  and  _159
REMARK   69  A    between atoms: _158  and  _161
REMARK   70  A    between atoms: _161  and  _162
REMARK   71  A    between atoms: _166  and  _167
REMARK   72  A    between atoms: _172  and  _174
REMARK   73  A    between atoms: _174  and  _175
REMARK   74  A    between atoms: _174  and  _177
REMARK   75  A    between atoms: _177  and  _178
REMARK   76  A    between atoms: _182  and  _183
REMARK   77  A    between atoms: _188  and  _190
REMARK   78  A    between atoms: _190  and  _191
REMARK   79  A    between atoms: _190  and  _193
REMARK   80  A    between atoms: _196  and  _198
REMARK   81  A    between atoms: _198  and  _199
REMARK   82  A    between atoms: _198  and  _201
REMARK   83  A    between atoms: _201  and  _202
REMARK   84  A    between atoms: _207  and  _209
REMARK   85  A    between atoms: _209  and  _210
REMARK   86  A    between atoms: _209  and  _212
REMARK   87  A    between atoms: _212  and  _213
REMARK   88  A    between atoms: _216  and  _218
REMARK   89  A    between atoms: _218  and  _219
REMARK   90  A    between atoms: _218  and  _221
REMARK   91  A    between atoms: _221  and  _222
REMARK   92  A    between atoms: _225  and  _227
REMARK   93  A    between atoms: _227  and  _228
REMARK   94  A    between atoms: _230  and  _232
REMARK   95  A    between atoms: _232  and  _233
REMARK   96  A    between atoms: _232  and  _235
REMARK   97  A    between atoms: _235  and  _236
REMARK   98  A    between atoms: _236  and  _237
REMARK   99  A    between atoms: _237  and  _238
REMARK  100  A    between atoms: _247  and  _249
REMARK  101  A    between atoms: _249  and  _250
REMARK  102  A    between atoms: _249  and  _252
REMARK  103  A    between atoms: _252  and  _253
REMARK  104  A    between atoms: _258  and  _260
REMARK  105  A    between atoms: _260  and  _261
REMARK  106  A    between atoms: _260  and  _263
REMARK  107  A    between atoms: _263  and  _264
REMARK  108  A    between atoms: _264  and  _265
REMARK  109  A    between atoms: _265  and  _266
REMARK  110  A    between atoms: _275  and  _277
REMARK  111  A    between atoms: _277  and  _278
REMARK  112  A    between atoms: _277  and  _280
REMARK  113  A    between atoms: _280  and  _281
REMARK  114  A    between atoms: _284  and  _286
REMARK  115  A    between atoms: _286  and  _287
REMARK  116  A    between atoms: _286  and  _289
REMARK  117  A    between atoms: _289  and  _290
REMARK  118  A    between atoms: _293  and  _295
REMARK  119  A    between atoms: _295  and  _296
REMARK  120  A    between atoms: _295  and  _298
REMARK  121  A    between atoms: _298  and  _299
REMARK  122  A    between atoms: _302  and  _304
REMARK  123  A    between atoms: _304  and  _305
REMARK  124  A    between atoms: _304  and  _307
REMARK  125  A    between atoms: _307  and  _308
REMARK  126  A    between atoms: _311  and  _313
REMARK  127  A    between atoms: _313  and  _314
REMARK  128  A    between atoms: _313  and  _316
REMARK  129  A    between atoms: _316  and  _317
REMARK  130  A    between atoms: _320  and  _322
REMARK  131  A    between atoms: _322  and  _323
REMARK  132  A    between atoms: _325  and  _327
REMARK  133  A    between atoms: _327  and  _328
REMARK  134  A    between atoms: _331  and  _333
REMARK  135  A    between atoms: _333  and  _334
REMARK  136  A    between atoms: _333  and  _336
REMARK  137  A    between atoms: _336  and  _337
REMARK  138  A    between atoms: _340  and  _342
REMARK  139  A    between atoms: _342  and  _343
REMARK  140  A    between atoms: _342  and  _345
REMARK  141  A    between atoms: _345  and  _346
REMARK  142  A    between atoms: _349  and  _351
REMARK  143  A    between atoms: _351  and  _352
REMARK  144  A    between atoms: _351  and  _354
REMARK  145  A    between atoms: _354  and  _355
REMARK  146  A    between atoms: _358  and  _360
REMARK  147  A    between atoms: _360  and  _361
REMARK  148  A    between atoms: _360  and  _363
REMARK  149  A    between atoms: _366  and  _368
REMARK  150  A    between atoms: _368  and  _369
REMARK  151  A    between atoms: _368  and  _371
REMARK  152  A    between atoms: _371  and  _372
REMARK  153  A    between atoms: _372  and  _373
REMARK  154  A    between atoms: _375  and  _377
REMARK  155  A    between atoms: _377  and  _378
REMARK  156  A    between atoms: _377  and  _380
REMARK  157  A    between atoms: _380  and  _381
REMARK  158  A    between atoms: _384  and  _386
REMARK  159  A    between atoms: _386  and  _387
REMARK  160  A    between atoms: _389  and  _391
REMARK  161  A    between atoms: _391  and  _392
REMARK  162  A    between atoms: _394  and  _396
REMARK  163  A    between atoms: _396  and  _397
REMARK  164  A    between atoms: _396  and  _399
REMARK  165  A    between atoms: _399  and  _400
REMARK  166  A    between atoms: _403  and  _405
REMARK  167  A    between atoms: _405  and  _406
REMARK  168  A    between atoms: _408  and  _410
REMARK  169  A    between atoms: _410  and  _411
REMARK  170  A    between atoms: _413  and  _415
REMARK  171  A    between atoms: _415  and  _416
REMARK  172  A    between atoms: _415  and  _418
REMARK  173  A    between atoms: _418  and  _419
REMARK  174  A    between atoms: _425  and  _427
REMARK  175  A    between atoms: _427  and  _428
REMARK  176  A    between atoms: _427  and  _430
REMARK  177  A    between atoms: _430  and  _431
REMARK  178  A    between atoms: _434  and  _436
REMARK  179  A    between atoms: _436  and  _437
REMARK  180  A    between atoms: _436  and  _439
REMARK  181  A    between atoms: _442  and  _444
REMARK  182  A    between atoms: _444  and  _445
REMARK  183  A    between atoms: _444  and  _447
REMARK  184  A    between atoms: _447  and  _448
REMARK  185  A    between atoms: _451  and  _453
REMARK  186  A    between atoms: _453  and  _454
REMARK  187  A    between atoms: _453  and  _456
REMARK  188  A    between atoms: _456  and  _457
REMARK  189  A    between atoms: _461  and  _462
REMARK  190  A    between atoms: _467  and  _469
REMARK  191  A    between atoms: _469  and  _470
REMARK  192  A    between atoms: _469  and  _472
REMARK  193  A    between atoms: _475  and  _477
REMARK  194  A    between atoms: _477  and  _478
REMARK  195  A    between atoms: _477  and  _480
REMARK  196  A    between atoms: _480  and  _481
REMARK  197  A    between atoms: _486  and  _488
REMARK  198  A    between atoms: _488  and  _489
REMARK  199  A    between atoms: _488  and  _491
REMARK  200  A    between atoms: _491  and  _492
REMARK  201  A    between atoms: _495  and  _497
REMARK  202  A    between atoms: _497  and  _498
REMARK  203  A    between atoms: _497  and  _500
REMARK  204  A    between atoms: _500  and  _501
REMARK  205  A    between atoms: _504  and  _506
REMARK  206  A    between atoms: _506  and  _507
REMARK  207  A    between atoms: _509  and  _511
REMARK  208  A    between atoms: _511  and  _512
REMARK  209  A    between atoms: _511  and  _514
REMARK  210  A    between atoms: _514  and  _515
REMARK  211  A    between atoms: _515  and  _516
REMARK  212  A    between atoms: _516  and  _517
REMARK                            x       y       z     vdW  Elec       q    Type
REMARK                         _______ _______ _______ _____ _____    ______ ____
ROOT
ATOM      1  O   HOH     1      10.510  -3.652   6.379  0.00  0.00    +0.000 OA
ENDROOT
TORSDOF 0
REMARK  Name = ../refined-set-2016/1ohr/1ohr_pocket.pdb
REMARK  212 active torsions:
REMARK  status: ('A' for Active; 'I' for Inactive)
REMARK    1  A    between atoms: _1  and  _3
REMARK    2  A    between atoms: _3  and  _4
REMARK    3  A    between atoms: _3  and  _6
REMARK    4  A    between atoms: _6  and  _7
REMARK    5  A    between atoms: _7  and  _8
REMARK    6  A    between atoms: _8  and  _9
REMARK    7  A    between atoms: _18  and  _20
REMARK    8  A    between atoms: _20  and  _21
REMARK    9  A    between atoms: _20  and  _23
REMARK   10  A    between atoms: _23  and  _24
REMARK   11  A    between atoms: _27  and  _29
REMARK   12  A    between atoms: _29  and  _30
REMARK   13  A    between atoms: _29  and  _32
REMARK   14  A    between atoms: _32  and  _33
REMARK   15  A    between atoms: _36  and  _38
REMARK   16  A    between atoms: _38  and  _39
REMARK   17  A    between atoms: _38  and  _41
REMARK   18  A    between atoms: _41  and  _42
REMARK   19  A    between atoms: _45  and  _47
REMARK   20  A    between atoms: _47  and  _48
REMARK   21  A    between atoms: _47  and  _50
REMARK   22  A    between atoms: _50  and  _51
REMARK   23  A    between atoms: _54  and  _56
REMARK   24  A    between atoms: _56  and  _57
REMARK   25  A    between atoms: _59  and  _61
REMARK   26  A    between atoms: _61  and  _62
REMARK   27  A    between atoms: _65  and  _67
REMARK   28  A    between atoms: _67  and  _68
REMARK   29  A    between atoms: _67  and  _70
REMARK   30  A    between atoms: _70  and  _71
REMARK   31  A    between atoms: _74  and  _76
REMARK   32  A    between atoms: _76  and  _77
REMARK   33  A    between atoms: _76  and  _79
REMARK   34  A    between atoms: _79  and  _80
REMARK   35  A    between atoms: _83  and  _85
REMARK   36  A    between atoms: _85  and  _86
REMARK   37  A    between atoms: _85  and  _88
REMARK   38  A    between atoms: _88  and  _89
REMARK   39  A    between atoms: _92  and  _94
REMARK   40  A    between atoms: _94  and  _95
REMARK   41  A    between atoms: _94  and  _97
REMARK   42  A    between atoms: _100  and  _102
REMARK   43  A    between atoms: _102  and  _103
REMARK   44  A    between atoms: _102  and  _105
REMARK   45  A    between atoms: _105  and  _106
REMARK   46  A    between atoms: _106  and  _107
REMARK   47  A    between atoms: _109  and  _111
REMARK   48  A    between atoms: _111  and  _112
REMARK   49  A    between atoms: _111  and  _114
REMARK   50  A    between atoms: _114  and  _115
REMARK   51  A    between atoms: _118  and  _120
REMARK   52  A    between atoms: _120  and  _121
REMARK   53  A    between atoms: _123  and  _125
REMARK   54  A    between atoms: _125  and  _126
REMARK   55  A    between atoms: _128  and  _130
REMARK   56  A    between atoms: _130  and  _131
REMARK   57  A    between atoms: _130  and  _133
REMARK   58  A    between atoms: _133  and  _134
REMARK   59  A    between atoms: _137  and  _139
REMARK   60  A    between atoms: _139  and  _140
REMARK   61  A    between atoms: _142  and  _144
REMARK   62  A    between atoms: _144  and  _145
REMARK   63  A    between atoms: _147  and  _149
REMARK   64  A    between atoms: _149  and  _150
REMARK   65  A    between atoms: _149  and  _152
REMARK   66  A    between atoms: _152  and  _153
REMARK   67  A    between atoms: _156  and  _158
REMARK   68  A    between atoms: _158  and  _159
REMARK   69  A    between atoms: _158  and  _161
REMARK   70  A    between atoms: _161  and  _162
REMARK   71  A    between atoms: _166  and  _167
REMARK   72  A    between atoms: _172  and  _174
REMARK   73  A    between atoms: _174  and  _175
REMARK   74  A    between atoms: _174  and  _177
REMARK   75  A    between atoms: _177  and  _178
REMARK   76  A    between atoms: _182  and  _183
REMARK   77  A    between atoms: _188  and  _190
REMARK   78  A    between atoms: _190  and  _191
REMARK   79  A    between atoms: _190  and  _193
REMARK   80  A    between atoms: _196  and  _198
REMARK   81  A    between atoms: _198  and  _199
REMARK   82  A    between atoms: _198  and  _201
REMARK   83  A    between atoms: _201  and  _202
REMARK   84  A    between atoms: _207  and  _209
REMARK   85  A    between atoms: _209  and  _210
REMARK   86  A    between atoms: _209  and  _212
REMARK   87  A    between atoms: _212  and  _213
REMARK   88  A    between atoms: _216  and  _218
REMARK   89  A    between atoms: _218  and  _219
REMARK   90  A    between atoms: _218  and  _221
REMARK   91  A    between atoms: _221  and  _222
REMARK   92  A    between atoms: _225  and  _227
REMARK   93  A    between atoms: _227  and  _228
REMARK   94  A    between atoms: _230  and  _232
REMARK   95  A    between atoms: _232  and  _233
REMARK   96  A    between atoms: _232  and  _235
REMARK   97  A    between atoms: _235  and  _236
REMARK   98  A    between atoms: _236  and  _237
REMARK   99  A    between atoms: _237  and  _238
REMARK  100  A    between atoms: _247  and  _249
REMARK  101  A    between atoms: _249  and  _250
REMARK  102  A    between atoms: _249  and  _252
REMARK  103  A    between atoms: _252  and  _253
REMARK  104  A    between atoms: _258  and  _260
REMARK  105  A    between atoms: _260  and  _261
REMARK  106  A    between atoms: _260  and  _263
REMARK  107  A    between atoms: _263  and  _264
REMARK  108  A    between atoms: _264  and  _265
REMARK  109  A    between atoms: _265  and  _266
REMARK  110  A    between atoms: _275  and  _277
REMARK  111  A    between atoms: _277  and  _278
REMARK  112  A    between atoms: _277  and  _280
REMARK  113  A    between atoms: _280  and  _281
REMARK  114  A    between atoms: _284  and  _286
REMARK  115  A    between atoms: _286  and  _287
REMARK  116  A    between atoms: _286  and  _289
REMARK  117  A    between atoms: _289  and  _290
REMARK  118  A    between atoms: _293  and  _295
REMARK  119  A    between atoms: _295  and  _296
REMARK  120  A    between atoms: _295  and  _298
REMARK  121  A    between atoms: _298  and  _299
REMARK  122  A    between atoms: _302  and  _304
REMARK  123  A    between atoms: _304  and  _305
REMARK  124  A    between atoms: _304  and  _307
REMARK  125  A    between atoms: _307  and  _308
REMARK  126  A    between atoms: _311  and  _313
REMARK  127  A    between atoms: _313  and  _314
REMARK  128  A    between atoms: _313  and  _316
REMARK  129  A    between atoms: _316  and  _317
REMARK  130  A    between atoms: _320  and  _322
REMARK  131  A    between atoms: _322  and  _323
REMARK  132  A    between atoms: _325  and  _327
REMARK  133  A    between atoms: _327  and  _328
REMARK  134  A    between atoms: _331  and  _333
REMARK  135  A    between atoms: _333  and  _334
REMARK  136  A    between atoms: _333  and  _336
REMARK  137  A    between atoms: _336  and  _337
REMARK  138  A    between atoms: _340  and  _342
REMARK  139  A    between atoms: _342  and  _343
REMARK  140  A    between atoms: _342  and  _345
REMARK  141  A    between atoms: _345  and  _346
REMARK  142  A    between atoms: _349  and  _351
REMARK  143  A    between atoms: _351  and  _352
REMARK  144  A    between atoms: _351  and  _354
REMARK  145  A    between atoms: _354  and  _355
REMARK  146  A    between atoms: _358  and  _360
REMARK  147  A    between atoms: _360  and  _361
REMARK  148  A    between atoms: _360  and  _363
REMARK  149  A    between atoms: _366  and  _368
REMARK  150  A    between atoms: _368  and  _369
REMARK  151  A    between atoms: _368  and  _371
REMARK  152  A    between atoms: _371  and  _372
REMARK  153  A    between atoms: _372  and  _373
REMARK  154  A    between atoms: _375  and  _377
REMARK  155  A    between atoms: _377  and  _378
REMARK  156  A    between atoms: _377  and  _380
REMARK  157  A    between atoms: _380  and  _381
REMARK  158  A    between atoms: _384  and  _386
REMARK  159  A    between atoms: _386  and  _387
REMARK  160  A    between atoms: _389  and  _391
REMARK  161  A    between atoms: _391  and  _392
REMARK  162  A    between atoms: _394  and  _396
REMARK  163  A    between atoms: _396  and  _397
REMARK  164  A    between atoms: _396  and  _399
REMARK  165  A    between atoms: _399  and  _400
REMARK  166  A    between atoms: _403  and  _405
REMARK  167  A    between atoms: _405  and  _406
REMARK  168  A    between atoms: _408  and  _410
REMARK  169  A    between atoms: _410  and  _411
REMARK  170  A    between atoms: _413  and  _415
REMARK  171  A    between atoms: _415  and  _416
REMARK  172  A    between atoms: _415  and  _418
REMARK  173  A    between atoms: _418  and  _419
REMARK  174  A    between atoms: _425  and  _427
REMARK  175  A    between atoms: _427  and  _428
REMARK  176  A    between atoms: _427  and  _430
REMARK  177  A    between atoms: _430  and  _431
REMARK  178  A    between atoms: _434  and  _436
REMARK  179  A    between atoms: _436  and  _437
REMARK  180  A    between atoms: _436  and  _439
REMARK  181  A    between atoms: _442  and  _444
REMARK  182  A    between atoms: _444  and  _445
REMARK  183  A    between atoms: _444  and  _447
REMARK  184  A    between atoms: _447  and  _448
REMARK  185  A    between atoms: _451  and  _453
REMARK  186  A    between atoms: _453  and  _454
REMARK  187  A    between atoms: _453  and  _456
REMARK  188  A    between atoms: _456  and  _457
REMARK  189  A    between atoms: _461  and  _462
REMARK  190  A    between atoms: _467  and  _469
REMARK  191  A    between atoms: _469  and  _470
REMARK  192  A    between atoms: _469  and  _472
REMARK  193  A    between atoms: _475  and  _477
REMARK  194  A    between atoms: _477  and  _478
REMARK  195  A    between atoms: _477  and  _480
REMARK  196  A    between atoms: _480  and  _481
REMARK  197  A    between atoms: _486  and  _488
REMARK  198  A    between atoms: _488  and  _489
REMARK  199  A    between atoms: _488  and  _491
REMARK  200  A    between atoms: _491  and  _492
REMARK  201  A    between atoms: _495  and  _497
REMARK  202  A    between atoms: _497  and  _498
REMARK  203  A    between atoms: _497  and  _500
REMARK  204  A    between atoms: _500  and  _501
REMARK  205  A    between atoms: _504  and  _506
REMARK  206  A    between atoms: _506  and  _507
REMARK  207  A    between atoms: _509  and  _511
REMARK  208  A    between atoms: _511  and  _512
REMARK  209  A    between atoms: _511  and  _514
REMARK  210  A    between atoms: _514  and  _515
REMARK  211  A    between atoms: _515  and  _516
REMARK  212  A    between atoms: _516  and  _517
REMARK                            x       y       z     vdW  Elec       q    Type
REMARK                         _______ _______ _______ _____ _____    ______ ____
ROOT
ATOM      1  O   HOH     1       4.357   3.347   7.491  0.00  0.00    +0.000 OA
ENDROOT
TORSDOF 0
REMARK  Name = ../refined-set-2016/1ohr/1ohr_pocket.pdb
REMARK  212 active torsions:
REMARK  status: ('A' for Active; 'I' for Inactive)
REMARK    1  A    between atoms: _1  and  _3
REMARK    2  A    between atoms: _3  and  _4
REMARK    3  A    between atoms: _3  and  _6
REMARK    4  A    between atoms: _6  and  _7
REMARK    5  A    between atoms: _7  and  _8
REMARK    6  A    between atoms: _8  and  _9
REMARK    7  A    between atoms: _18  and  _20
REMARK    8  A    between atoms: _20  and  _21
REMARK    9  A    between atoms: _20  and  _23
REMARK   10  A    between atoms: _23  and  _24
REMARK   11  A    between atoms: _27  and  _29
REMARK   12  A    between atoms: _29  and  _30
REMARK   13  A    between atoms: _29  and  _32
REMARK   14  A    between atoms: _32  and  _33
REMARK   15  A    between atoms: _36  and  _38
REMARK   16  A    between atoms: _38  and  _39
REMARK   17  A    between atoms: _38  and  _41
REMARK   18  A    between atoms: _41  and  _42
REMARK   19  A    between atoms: _45  and  _47
REMARK   20  A    between atoms: _47  and  _48
REMARK   21  A    between atoms: _47  and  _50
REMARK   22  A    between atoms: _50  and  _51
REMARK   23  A    between atoms: _54  and  _56
REMARK   24  A    between atoms: _56  and  _57
REMARK   25  A    between atoms: _59  and  _61
REMARK   26  A    between atoms: _61  and  _62
REMARK   27  A    between atoms: _65  and  _67
REMARK   28  A    between atoms: _67  and  _68
REMARK   29  A    between atoms: _67  and  _70
REMARK   30  A    between atoms: _70  and  _71
REMARK   31  A    between atoms: _74  and  _76
REMARK   32  A    between atoms: _76  and  _77
REMARK   33  A    between atoms: _76  and  _79
REMARK   34  A    between atoms: _79  and  _80
REMARK   35  A    between atoms: _83  and  _85
REMARK   36  A    between atoms: _85  and  _86
REMARK   37  A    between atoms: _85  and  _88
REMARK   38  A    between atoms: _88  and  _89
REMARK   39  A    between atoms: _92  and  _94
REMARK   40  A    between atoms: _94  and  _95
REMARK   41  A    between atoms: _94  and  _97
REMARK   42  A    between atoms: _100  and  _102
REMARK   43  A    between atoms: _102  and  _103
REMARK   44  A    between atoms: _102  and  _105
REMARK   45  A    between atoms: _105  and  _106
REMARK   46  A    between atoms: _106  and  _107
REMARK   47  A    between atoms: _109  and  _111
REMARK   48  A    between atoms: _111  and  _112
REMARK   49  A    between atoms: _111  and  _114
REMARK   50  A    between atoms: _114  and  _115
REMARK   51  A    between atoms: _118  and  _120
REMARK   52  A    between atoms: _120  and  _121
REMARK   53  A    between atoms: _123  and  _125
REMARK   54  A    between atoms: _125  and  _126
REMARK   55  A    between atoms: _128  and  _130
REMARK   56  A    between atoms: _130  and  _131
REMARK   57  A    between atoms: _130  and  _133
REMARK   58  A    between atoms: _133  and  _134
REMARK   59  A    between atoms: _137  and  _139
REMARK   60  A    between atoms: _139  and  _140
REMARK   61  A    between atoms: _142  and  _144
REMARK   62  A    between atoms: _144  and  _145
REMARK   63  A    between atoms: _147  and  _149
REMARK   64  A    between atoms: _149  and  _150
REMARK   65  A    between atoms: _149  and  _152
REMARK   66  A    between atoms: _152  and  _153
REMARK   67  A    between atoms: _156  and  _158
REMARK   68  A    between atoms: _158  and  _159
REMARK   69  A    between atoms: _158  and  _161
REMARK   70  A    between atoms: _161  and  _162
REMARK   71  A    between atoms: _166  and  _167
REMARK   72  A    between atoms: _172  and  _174
REMARK   73  A    between atoms: _174  and  _175
REMARK   74  A    between atoms: _174  and  _177
REMARK   75  A    between atoms: _177  and  _178
REMARK   76  A    between atoms: _182  and  _183
REMARK   77  A    between atoms: _188  and  _190
REMARK   78  A    between atoms: _190  and  _191
REMARK   79  A    between atoms: _190  and  _193
REMARK   80  A    between atoms: _196  and  _198
REMARK   81  A    between atoms: _198  and  _199
REMARK   82  A    between atoms: _198  and  _201
REMARK   83  A    between atoms: _201  and  _202
REMARK   84  A    between atoms: _207  and  _209
REMARK   85  A    between atoms: _209  and  _210
REMARK   86  A    between atoms: _209  and  _212
REMARK   87  A    between atoms: _212  and  _213
REMARK   88  A    between atoms: _216  and  _218
REMARK   89  A    between atoms: _218  and  _219
REMARK   90  A    between atoms: _218  and  _221
REMARK   91  A    between atoms: _221  and  _222
REMARK   92  A    between atoms: _225  and  _227
REMARK   93  A    between atoms: _227  and  _228
REMARK   94  A    between atoms: _230  and  _232
REMARK   95  A    between atoms: _232  and  _233
REMARK   96  A    between atoms: _232  and  _235
REMARK   97  A    between atoms: _235  and  _236
REMARK   98  A    between atoms: _236  and  _237
REMARK   99  A    between atoms: _237  and  _238
REMARK  100  A    between atoms: _247  and  _249
REMARK  101  A    between atoms: _249  and  _250
REMARK  102  A    between atoms: _249  and  _252
REMARK  103  A    between atoms: _252  and  _253
REMARK  104  A    between atoms: _258  and  _260
REMARK  105  A    between atoms: _260  and  _261
REMARK  106  A    between atoms: _260  and  _263
REMARK  107  A    between atoms: _263  and  _264
REMARK  108  A    between atoms: _264  and  _265
REMARK  109  A    between atoms: _265  and  _266
REMARK  110  A    between atoms: _275  and  _277
REMARK  111  A    between atoms: _277  and  _278
REMARK  112  A    between atoms: _277  and  _280
REMARK  113  A    between atoms: _280  and  _281
REMARK  114  A    between atoms: _284  and  _286
REMARK  115  A    between atoms: _286  and  _287
REMARK  116  A    between atoms: _286  and  _289
REMARK  117  A    between atoms: _289  and  _290
REMARK  118  A    between atoms: _293  and  _295
REMARK  119  A    between atoms: _295  and  _296
REMARK  120  A    between atoms: _295  and  _298
REMARK  121  A    between atoms: _298  and  _299
REMARK  122  A    between atoms: _302  and  _304
REMARK  123  A    between atoms: _304  and  _305
REMARK  124  A    between atoms: _304  and  _307
REMARK  125  A    between atoms: _307  and  _308
REMARK  126  A    between atoms: _311  and  _313
REMARK  127  A    between atoms: _313  and  _314
REMARK  128  A    between atoms: _313  and  _316
REMARK  129  A    between atoms: _316  and  _317
REMARK  130  A    between atoms: _320  and  _322
REMARK  131  A    between atoms: _322  and  _323
REMARK  132  A    between atoms: _325  and  _327
REMARK  133  A    between atoms: _327  and  _328
REMARK  134  A    between atoms: _331  and  _333
REMARK  135  A    between atoms: _333  and  _334
REMARK  136  A    between atoms: _333  and  _336
REMARK  137  A    between atoms: _336  and  _337
REMARK  138  A    between atoms: _340  and  _342
REMARK  139  A    between atoms: _342  and  _343
REMARK  140  A    between atoms: _342  and  _345
REMARK  141  A    between atoms: _345  and  _346
REMARK  142  A    between atoms: _349  and  _351
REMARK  143  A    between atoms: _351  and  _352
REMARK  144  A    between atoms: _351  and  _354
REMARK  145  A    between atoms: _354  and  _355
REMARK  146  A    between atoms: _358  and  _360
REMARK  147  A    between atoms: _360  and  _361
REMARK  148  A    between atoms: _360  and  _363
REMARK  149  A    between atoms: _366  and  _368
REMARK  150  A    between atoms: _368  and  _369
REMARK  151  A    between atoms: _368  and  _371
REMARK  152  A    between atoms: _371  and  _372
REMARK  153  A    between atoms: _372  and  _373
REMARK  154  A    between atoms: _375  and  _377
REMARK  155  A    between atoms: _377  and  _378
REMARK  156  A    between atoms: _377  and  _380
REMARK  157  A    between atoms: _380  and  _381
REMARK  158  A    between atoms: _384  and  _386
REMARK  159  A    between atoms: _386  and  _387
REMARK  160  A    between atoms: _389  and  _391
REMARK  161  A    between atoms: _391  and  _392
REMARK  162  A    between atoms: _394  and  _396
REMARK  163  A    between atoms: _396  and  _397
REMARK  164  A    between atoms: _396  and  _399
REMARK  165  A    between atoms: _399  and  _400
REMARK  166  A    between atoms: _403  and  _405
REMARK  167  A    between atoms: _405  and  _406
REMARK  168  A    between atoms: _408  and  _410
REMARK  169  A    between atoms: _410  and  _411
REMARK  170  A    between atoms: _413  and  _415
REMARK  171  A    between atoms: _415  and  _416
REMARK  172  A    between atoms: _415  and  _418
REMARK  173  A    between atoms: _418  and  _419
REMARK  174  A    between atoms: _425  and  _427
REMARK  175  A    between atoms: _427  and  _428
REMARK  176  A    between atoms: _427  and  _430
REMARK  177  A    between atoms: _430  and  _431
REMARK  178  A    between atoms: _434  and  _436
REMARK  179  A    between atoms: _436  and  _437
REMARK  180  A    between atoms: _436  and  _439
REMARK  181  A    between atoms: _442  and  _444
REMARK  182  A    between atoms: _444  and  _445
REMARK  183  A    between atoms: _444  and  _447
REMARK  184  A    between atoms: _447  and  _448
REMARK  185  A    between atoms: _451  and  _453
REMARK  186  A    between atoms: _453  and  _454
REMARK  187  A    between atoms: _453  and  _456
REMARK  188  A    between atoms: _456  and  _457
REMARK  189  A    between atoms: _461  and  _462
REMARK  190  A    between atoms: _467  and  _469
REMARK  191  A    between atoms: _469  and  _470
REMARK  192  A    between atoms: _469  and  _472
REMARK  193  A    between atoms: _475  and  _477
REMARK  194  A    between atoms: _477  and  _478
REMARK  195  A    between atoms: _477  and  _480
REMARK  196  A    between atoms: _480  and  _481
REMARK  197  A    between atoms: _486  and  _488
REMARK  198  A    between atoms: _488  and  _489
REMARK  199  A    between atoms: _488  and  _491
REMARK  200  A    between atoms: _491  and  _492
REMARK  201  A    between atoms: _495  and  _497
REMARK  202  A    between atoms: _497  and  _498
REMARK  203  A    between atoms: _497  and  _500
REMARK  204  A    between atoms: _500  and  _501
REMARK  205  A    between atoms: _504  and  _506
REMARK  206  A    between atoms: _506  and  _507
REMARK  207  A    between atoms: _509  and  _511
REMARK  208  A    between atoms: _511  and  _512
REMARK  209  A    between atoms: _511  and  _514
REMARK  210  A    between atoms: _514  and  _515
REMARK  211  A    between atoms: _515  and  _516
REMARK  212  A    between atoms: _516  and  _517
REMARK                            x       y       z     vdW  Elec       q    Type
REMARK                         _______ _______ _______ _____ _____    ______ ____
ROOT
ATOM      1  O   HOH     1      16.009  -5.887  20.978  0.00  0.00    +0.000 OA
ENDROOT
TORSDOF 0
REMARK  Name = ../refined-set-2016/1ohr/1ohr_pocket.pdb
REMARK  212 active torsions:
REMARK  status: ('A' for Active; 'I' for Inactive)
REMARK    1  A    between atoms: _1  and  _3
REMARK    2  A    between atoms: _3  and  _4
REMARK    3  A    between atoms: _3  and  _6
REMARK    4  A    between atoms: _6  and  _7
REMARK    5  A    between atoms: _7  and  _8
REMARK    6  A    between atoms: _8  and  _9
REMARK    7  A    between atoms: _18  and  _20
REMARK    8  A    between atoms: _20  and  _21
REMARK    9  A    between atoms: _20  and  _23
REMARK   10  A    between atoms: _23  and  _24
REMARK   11  A    between atoms: _27  and  _29
REMARK   12  A    between atoms: _29  and  _30
REMARK   13  A    between atoms: _29  and  _32
REMARK   14  A    between atoms: _32  and  _33
REMARK   15  A    between atoms: _36  and  _38
REMARK   16  A    between atoms: _38  and  _39
REMARK   17  A    between atoms: _38  and  _41
REMARK   18  A    between atoms: _41  and  _42
REMARK   19  A    between atoms: _45  and  _47
REMARK   20  A    between atoms: _47  and  _48
REMARK   21  A    between atoms: _47  and  _50
REMARK   22  A    between atoms: _50  and  _51
REMARK   23  A    between atoms: _54  and  _56
REMARK   24  A    between atoms: _56  and  _57
REMARK   25  A    between atoms: _59  and  _61
REMARK   26  A    between atoms: _61  and  _62
REMARK   27  A    between atoms: _65  and  _67
REMARK   28  A    between atoms: _67  and  _68
REMARK   29  A    between atoms: _67  and  _70
REMARK   30  A    between atoms: _70  and  _71
REMARK   31  A    between atoms: _74  and  _76
REMARK   32  A    between atoms: _76  and  _77
REMARK   33  A    between atoms: _76  and  _79
REMARK   34  A    between atoms: _79  and  _80
REMARK   35  A    between atoms: _83  and  _85
REMARK   36  A    between atoms: _85  and  _86
REMARK   37  A    between atoms: _85  and  _88
REMARK   38  A    between atoms: _88  and  _89
REMARK   39  A    between atoms: _92  and  _94
REMARK   40  A    between atoms: _94  and  _95
REMARK   41  A    between atoms: _94  and  _97
REMARK   42  A    between atoms: _100  and  _102
REMARK   43  A    between atoms: _102  and  _103
REMARK   44  A    between atoms: _102  and  _105
REMARK   45  A    between atoms: _105  and  _106
REMARK   46  A    between atoms: _106  and  _107
REMARK   47  A    between atoms: _109  and  _111
REMARK   48  A    between atoms: _111  and  _112
REMARK   49  A    between atoms: _111  and  _114
REMARK   50  A    between atoms: _114  and  _115
REMARK   51  A    between atoms: _118  and  _120
REMARK   52  A    between atoms: _120  and  _121
REMARK   53  A    between atoms: _123  and  _125
REMARK   54  A    between atoms: _125  and  _126
REMARK   55  A    between atoms: _128  and  _130
REMARK   56  A    between atoms: _130  and  _131
REMARK   57  A    between atoms: _130  and  _133
REMARK   58  A    between atoms: _133  and  _134
REMARK   59  A    between atoms: _137  and  _139
REMARK   60  A    between atoms: _139  and  _140
REMARK   61  A    between atoms: _142  and  _144
REMARK   62  A    between atoms: _144  and  _145
REMARK   63  A    between atoms: _147  and  _149
REMARK   64  A    between atoms: _149  and  _150
REMARK   65  A    between atoms: _149  and  _152
REMARK   66  A    between atoms: _152  and  _153
REMARK   67  A    between atoms: _156  and  _158
REMARK   68  A    between atoms: _158  and  _159
REMARK   69  A    between atoms: _158  and  _161
REMARK   70  A    between atoms: _161  and  _162
REMARK   71  A    between atoms: _166  and  _167
REMARK   72  A    between atoms: _172  and  _174
REMARK   73  A    between atoms: _174  and  _175
REMARK   74  A    between atoms: _174  and  _177
REMARK   75  A    between atoms: _177  and  _178
REMARK   76  A    between atoms: _182  and  _183
REMARK   77  A    between atoms: _188  and  _190
REMARK   78  A    between atoms: _190  and  _191
REMARK   79  A    between atoms: _190  and  _193
REMARK   80  A    between atoms: _196  and  _198
REMARK   81  A    between atoms: _198  and  _199
REMARK   82  A    between atoms: _198  and  _201
REMARK   83  A    between atoms: _201  and  _202
REMARK   84  A    between atoms: _207  and  _209
REMARK   85  A    between atoms: _209  and  _210
REMARK   86  A    between atoms: _209  and  _212
REMARK   87  A    between atoms: _212  and  _213
REMARK   88  A    between atoms: _216  and  _218
REMARK   89  A    between atoms: _218  and  _219
REMARK   90  A    between atoms: _218  and  _221
REMARK   91  A    between atoms: _221  and  _222
REMARK   92  A    between atoms: _225  and  _227
REMARK   93  A    between atoms: _227  and  _228
REMARK   94  A    between atoms: _230  and  _232
REMARK   95  A    between atoms: _232  and  _233
REMARK   96  A    between atoms: _232  and  _235
REMARK   97  A    between atoms: _235  and  _236
REMARK   98  A    between atoms: _236  and  _237
REMARK   99  A    between atoms: _237  and  _238
REMARK  100  A    between atoms: _247  and  _249
REMARK  101  A    between atoms: _249  and  _250
REMARK  102  A    between atoms: _249  and  _252
REMARK  103  A    between atoms: _252  and  _253
REMARK  104  A    between atoms: _258  and  _260
REMARK  105  A    between atoms: _260  and  _261
REMARK  106  A    between atoms: _260  and  _263
REMARK  107  A    between atoms: _263  and  _264
REMARK  108  A    between atoms: _264  and  _265
REMARK  109  A    between atoms: _265  and  _266
REMARK  110  A    between atoms: _275  and  _277
REMARK  111  A    between atoms: _277  and  _278
REMARK  112  A    between atoms: _277  and  _280
REMARK  113  A    between atoms: _280  and  _281
REMARK  114  A    between atoms: _284  and  _286
REMARK  115  A    between atoms: _286  and  _287
REMARK  116  A    between atoms: _286  and  _289
REMARK  117  A    between atoms: _289  and  _290
REMARK  118  A    between atoms: _293  and  _295
REMARK  119  A    between atoms: _295  and  _296
REMARK  120  A    between atoms: _295  and  _298
REMARK  121  A    between atoms: _298  and  _299
REMARK  122  A    between atoms: _302  and  _304
REMARK  123  A    between atoms: _304  and  _305
REMARK  124  A    between atoms: _304  and  _307
REMARK  125  A    between atoms: _307  and  _308
REMARK  126  A    between atoms: _311  and  _313
REMARK  127  A    between atoms: _313  and  _314
REMARK  128  A    between atoms: _313  and  _316
REMARK  129  A    between atoms: _316  and  _317
REMARK  130  A    between atoms: _320  and  _322
REMARK  131  A    between atoms: _322  and  _323
REMARK  132  A    between atoms: _325  and  _327
REMARK  133  A    between atoms: _327  and  _328
REMARK  134  A    between atoms: _331  and  _333
REMARK  135  A    between atoms: _333  and  _334
REMARK  136  A    between atoms: _333  and  _336
REMARK  137  A    between atoms: _336  and  _337
REMARK  138  A    between atoms: _340  and  _342
REMARK  139  A    between atoms: _342  and  _343
REMARK  140  A    between atoms: _342  and  _345
REMARK  141  A    between atoms: _345  and  _346
REMARK  142  A    between atoms: _349  and  _351
REMARK  143  A    between atoms: _351  and  _352
REMARK  144  A    between atoms: _351  and  _354
REMARK  145  A    between atoms: _354  and  _355
REMARK  146  A    between atoms: _358  and  _360
REMARK  147  A    between atoms: _360  and  _361
REMARK  148  A    between atoms: _360  and  _363
REMARK  149  A    between atoms: _366  and  _368
REMARK  150  A    between atoms: _368  and  _369
REMARK  151  A    between atoms: _368  and  _371
REMARK  152  A    between atoms: _371  and  _372
REMARK  153  A    between atoms: _372  and  _373
REMARK  154  A    between atoms: _375  and  _377
REMARK  155  A    between atoms: _377  and  _378
REMARK  156  A    between atoms: _377  and  _380
REMARK  157  A    between atoms: _380  and  _381
REMARK  158  A    between atoms: _384  and  _386
REMARK  159  A    between atoms: _386  and  _387
REMARK  160  A    between atoms: _389  and  _391
REMARK  161  A    between atoms: _391  and  _392
REMARK  162  A    between atoms: _394  and  _396
REMARK  163  A    between atoms: _396  and  _397
REMARK  164  A    between atoms: _396  and  _399
REMARK  165  A    between atoms: _399  and  _400
REMARK  166  A    between atoms: _403  and  _405
REMARK  167  A    between atoms: _405  and  _406
REMARK  168  A    between atoms: _408  and  _410
REMARK  169  A    between atoms: _410  and  _411
REMARK  170  A    between atoms: _413  and  _415
REMARK  171  A    between atoms: _415  and  _416
REMARK  172  A    between atoms: _415  and  _418
REMARK  173  A    between atoms: _418  and  _419
REMARK  174  A    between atoms: _425  and  _427
REMARK  175  A    between atoms: _427  and  _428
REMARK  176  A    between atoms: _427  and  _430
REMARK  177  A    between atoms: _430  and  _431
REMARK  178  A    between atoms: _434  and  _436
REMARK  179  A    between atoms: _436  and  _437
REMARK  180  A    between atoms: _436  and  _439
REMARK  181  A    between atoms: _442  and  _444
REMARK  182  A    between atoms: _444  and  _445
REMARK  183  A    between atoms: _444  and  _447
REMARK  184  A    between atoms: _447  and  _448
REMARK  185  A    between atoms: _451  and  _453
REMARK  186  A    between atoms: _453  and  _454
REMARK  187  A    between atoms: _453  and  _456
REMARK  188  A    between atoms: _456  and  _457
REMARK  189  A    between atoms: _461  and  _462
REMARK  190  A    between atoms: _467  and  _469
REMARK  191  A    between atoms: _469  and  _470
REMARK  192  A    between atoms: _469  and  _472
REMARK  193  A    between atoms: _475  and  _477
REMARK  194  A    between atoms: _477  and  _478
REMARK  195  A    between atoms: _477  and  _480
REMARK  196  A    between atoms: _480  and  _481
REMARK  197  A    between atoms: _486  and  _488
REMARK  198  A    between atoms: _488  and  _489
REMARK  199  A    between atoms: _488  and  _491
REMARK  200  A    between atoms: _491  and  _492
REMARK  201  A    between atoms: _495  and  _497
REMARK  202  A    between atoms: _497  and  _498
REMARK  203  A    between atoms: _497  and  _500
REMARK  204  A    between atoms: _500  and  _501
REMARK  205  A    between atoms: _504  and  _506
REMARK  206  A    between atoms: _506  and  _507
REMARK  207  A    between atoms: _509  and  _511
REMARK  208  A    between atoms: _511  and  _512
REMARK  209  A    between atoms: _511  and  _514
REMARK  210  A    between atoms: _514  and  _515
REMARK  211  A    between atoms: _515  and  _516
REMARK  212  A    between atoms: _516  and  _517
REMARK                            x       y       z     vdW  Elec       q    Type
REMARK                         _______ _______ _______ _____ _____    ______ ____
ROOT
ATOM      1  O   HOH     1       5.180  -3.368  23.260  0.00  0.00    +0.000 OA
ENDROOT
TORSDOF 0
REMARK  Name = ../refined-set-2016/1ohr/1ohr_pocket.pdb
REMARK  212 active torsions:
REMARK  status: ('A' for Active; 'I' for Inactive)
REMARK    1  A    between atoms: _1  and  _3
REMARK    2  A    between atoms: _3  and  _4
REMARK    3  A    between atoms: _3  and  _6
REMARK    4  A    between atoms: _6  and  _7
REMARK    5  A    between atoms: _7  and  _8
REMARK    6  A    between atoms: _8  and  _9
REMARK    7  A    between atoms: _18  and  _20
REMARK    8  A    between atoms: _20  and  _21
REMARK    9  A    between atoms: _20  and  _23
REMARK   10  A    between atoms: _23  and  _24
REMARK   11  A    between atoms: _27  and  _29
REMARK   12  A    between atoms: _29  and  _30
REMARK   13  A    between atoms: _29  and  _32
REMARK   14  A    between atoms: _32  and  _33
REMARK   15  A    between atoms: _36  and  _38
REMARK   16  A    between atoms: _38  and  _39
REMARK   17  A    between atoms: _38  and  _41
REMARK   18  A    between atoms: _41  and  _42
REMARK   19  A    between atoms: _45  and  _47
REMARK   20  A    between atoms: _47  and  _48
REMARK   21  A    between atoms: _47  and  _50
REMARK   22  A    between atoms: _50  and  _51
REMARK   23  A    between atoms: _54  and  _56
REMARK   24  A    between atoms: _56  and  _57
REMARK   25  A    between atoms: _59  and  _61
REMARK   26  A    between atoms: _61  and  _62
REMARK   27  A    between atoms: _65  and  _67
REMARK   28  A    between atoms: _67  and  _68
REMARK   29  A    between atoms: _67  and  _70
REMARK   30  A    between atoms: _70  and  _71
REMARK   31  A    between atoms: _74  and  _76
REMARK   32  A    between atoms: _76  and  _77
REMARK   33  A    between atoms: _76  and  _79
REMARK   34  A    between atoms: _79  and  _80
REMARK   35  A    between atoms: _83  and  _85
REMARK   36  A    between atoms: _85  and  _86
REMARK   37  A    between atoms: _85  and  _88
REMARK   38  A    between atoms: _88  and  _89
REMARK   39  A    between atoms: _92  and  _94
REMARK   40  A    between atoms: _94  and  _95
REMARK   41  A    between atoms: _94  and  _97
REMARK   42  A    between atoms: _100  and  _102
REMARK   43  A    between atoms: _102  and  _103
REMARK   44  A    between atoms: _102  and  _105
REMARK   45  A    between atoms: _105  and  _106
REMARK   46  A    between atoms: _106  and  _107
REMARK   47  A    between atoms: _109  and  _111
REMARK   48  A    between atoms: _111  and  _112
REMARK   49  A    between atoms: _111  and  _114
REMARK   50  A    between atoms: _114  and  _115
REMARK   51  A    between atoms: _118  and  _120
REMARK   52  A    between atoms: _120  and  _121
REMARK   53  A    between atoms: _123  and  _125
REMARK   54  A    between atoms: _125  and  _126
REMARK   55  A    between atoms: _128  and  _130
REMARK   56  A    between atoms: _130  and  _131
REMARK   57  A    between atoms: _130  and  _133
REMARK   58  A    between atoms: _133  and  _134
REMARK   59  A    between atoms: _137  and  _139
REMARK   60  A    between atoms: _139  and  _140
REMARK   61  A    between atoms: _142  and  _144
REMARK   62  A    between atoms: _144  and  _145
REMARK   63  A    between atoms: _147  and  _149
REMARK   64  A    between atoms: _149  and  _150
REMARK   65  A    between atoms: _149  and  _152
REMARK   66  A    between atoms: _152  and  _153
REMARK   67  A    between atoms: _156  and  _158
REMARK   68  A    between atoms: _158  and  _159
REMARK   69  A    between atoms: _158  and  _161
REMARK   70  A    between atoms: _161  and  _162
REMARK   71  A    between atoms: _166  and  _167
REMARK   72  A    between atoms: _172  and  _174
REMARK   73  A    between atoms: _174  and  _175
REMARK   74  A    between atoms: _174  and  _177
REMARK   75  A    between atoms: _177  and  _178
REMARK   76  A    between atoms: _182  and  _183
REMARK   77  A    between atoms: _188  and  _190
REMARK   78  A    between atoms: _190  and  _191
REMARK   79  A    between atoms: _190  and  _193
REMARK   80  A    between atoms: _196  and  _198
REMARK   81  A    between atoms: _198  and  _199
REMARK   82  A    between atoms: _198  and  _201
REMARK   83  A    between atoms: _201  and  _202
REMARK   84  A    between atoms: _207  and  _209
REMARK   85  A    between atoms: _209  and  _210
REMARK   86  A    between atoms: _209  and  _212
REMARK   87  A    between atoms: _212  and  _213
REMARK   88  A    between atoms: _216  and  _218
REMARK   89  A    between atoms: _218  and  _219
REMARK   90  A    between atoms: _218  and  _221
REMARK   91  A    between atoms: _221  and  _222
REMARK   92  A    between atoms: _225  and  _227
REMARK   93  A    between atoms: _227  and  _228
REMARK   94  A    between atoms: _230  and  _232
REMARK   95  A    between atoms: _232  and  _233
REMARK   96  A    between atoms: _232  and  _235
REMARK   97  A    between atoms: _235  and  _236
REMARK   98  A    between atoms: _236  and  _237
REMARK   99  A    between atoms: _237  and  _238
REMARK  100  A    between atoms: _247  and  _249
REMARK  101  A    between atoms: _249  and  _250
REMARK  102  A    between atoms: _249  and  _252
REMARK  103  A    between atoms: _252  and  _253
REMARK  104  A    between atoms: _258  and  _260
REMARK  105  A    between atoms: _260  and  _261
REMARK  106  A    between atoms: _260  and  _263
REMARK  107  A    between atoms: _263  and  _264
REMARK  108  A    between atoms: _264  and  _265
REMARK  109  A    between atoms: _265  and  _266
REMARK  110  A    between atoms: _275  and  _277
REMARK  111  A    between atoms: _277  and  _278
REMARK  112  A    between atoms: _277  and  _280
REMARK  113  A    between atoms: _280  and  _281
REMARK  114  A    between atoms: _284  and  _286
REMARK  115  A    between atoms: _286  and  _287
REMARK  116  A    between atoms: _286  and  _289
REMARK  117  A    between atoms: _289  and  _290
REMARK  118  A    between atoms: _293  and  _295
REMARK  119  A    between atoms: _295  and  _296
REMARK  120  A    between atoms: _295  and  _298
REMARK  121  A    between atoms: _298  and  _299
REMARK  122  A    between atoms: _302  and  _304
REMARK  123  A    between atoms: _304  and  _305
REMARK  124  A    between atoms: _304  and  _307
REMARK  125  A    between atoms: _307  and  _308
REMARK  126  A    between atoms: _311  and  _313
REMARK  127  A    between atoms: _313  and  _314
REMARK  128  A    between atoms: _313  and  _316
REMARK  129  A    between atoms: _316  and  _317
REMARK  130  A    between atoms: _320  and  _322
REMARK  131  A    between atoms: _322  and  _323
REMARK  132  A    between atoms: _325  and  _327
REMARK  133  A    between atoms: _327  and  _328
REMARK  134  A    between atoms: _331  and  _333
REMARK  135  A    between atoms: _333  and  _334
REMARK  136  A    between atoms: _333  and  _336
REMARK  137  A    between atoms: _336  and  _337
REMARK  138  A    between atoms: _340  and  _342
REMARK  139  A    between atoms: _342  and  _343
REMARK  140  A    between atoms: _342  and  _345
REMARK  141  A    between atoms: _345  and  _346
REMARK  142  A    between atoms: _349  and  _351
REMARK  143  A    between atoms: _351  and  _352
REMARK  144  A    between atoms: _351  and  _354
REMARK  145  A    between atoms: _354  and  _355
REMARK  146  A    between atoms: _358  and  _360
REMARK  147  A    between atoms: _360  and  _361
REMARK  148  A    between atoms: _360  and  _363
REMARK  149  A    between atoms: _366  and  _368
REMARK  150  A    between atoms: _368  and  _369
REMARK  151  A    between atoms: _368  and  _371
REMARK  152  A    between atoms: _371  and  _372
REMARK  153  A    between atoms: _372  and  _373
REMARK  154  A    between atoms: _375  and  _377
REMARK  155  A    between atoms: _377  and  _378
REMARK  156  A    between atoms: _377  and  _380
REMARK  157  A    between atoms: _380  and  _381
REMARK  158  A    between atoms: _384  and  _386
REMARK  159  A    between atoms: _386  and  _387
REMARK  160  A    between atoms: _389  and  _391
REMARK  161  A    between atoms: _391  and  _392
REMARK  162  A    between atoms: _394  and  _396
REMARK  163  A    between atoms: _396  and  _397
REMARK  164  A    between atoms: _396  and  _399
REMARK  165  A    between atoms: _399  and  _400
REMARK  166  A    between atoms: _403  and  _405
REMARK  167  A    between atoms: _405  and  _406
REMARK  168  A    between atoms: _408  and  _410
REMARK  169  A    between atoms: _410  and  _411
REMARK  170  A    between atoms: _413  and  _415
REMARK  171  A    between atoms: _415  and  _416
REMARK  172  A    between atoms: _415  and  _418
REMARK  173  A    between atoms: _418  and  _419
REMARK  174  A    between atoms: _425  and  _427
REMARK  175  A    between atoms: _427  and  _428
REMARK  176  A    between atoms: _427  and  _430
REMARK  177  A    between atoms: _430  and  _431
REMARK  178  A    between atoms: _434  and  _436
REMARK  179  A    between atoms: _436  and  _437
REMARK  180  A    between atoms: _436  and  _439
REMARK  181  A    between atoms: _442  and  _444
REMARK  182  A    between atoms: _444  and  _445
REMARK  183  A    between atoms: _444  and  _447
REMARK  184  A    between atoms: _447  and  _448
REMARK  185  A    between atoms: _451  and  _453
REMARK  186  A    between atoms: _453  and  _454
REMARK  187  A    between atoms: _453  and  _456
REMARK  188  A    between atoms: _456  and  _457
REMARK  189  A    between atoms: _461  and  _462
REMARK  190  A    between atoms: _467  and  _469
REMARK  191  A    between atoms: _469  and  _470
REMARK  192  A    between atoms: _469  and  _472
REMARK  193  A    between atoms: _475  and  _477
REMARK  194  A    between atoms: _477  and  _478
REMARK  195  A    between atoms: _477  and  _480
REMARK  196  A    between atoms: _480  and  _481
REMARK  197  A    between atoms: _486  and  _488
REMARK  198  A    between atoms: _488  and  _489
REMARK  199  A    between atoms: _488  and  _491
REMARK  200  A    between atoms: _491  and  _492
REMARK  201  A    between atoms: _495  and  _497
REMARK  202  A    between atoms: _497  and  _498
REMARK  203  A    between atoms: _497  and  _500
REMARK  204  A    between atoms: _500  and  _501
REMARK  205  A    between atoms: _504  and  _506
REMARK  206  A    between atoms: _506  and  _507
REMARK  207  A    between atoms: _509  and  _511
REMARK  208  A    between atoms: _511  and  _512
REMARK  209  A    between atoms: _511  and  _514
REMARK  210  A    between atoms: _514  and  _515
REMARK  211  A    between atoms: _515  and  _516
REMARK  212  A    between atoms: _516  and  _517
REMARK                            x       y       z     vdW  Elec       q    Type
REMARK                         _______ _______ _______ _____ _____    ______ ____
ROOT
ATOM      1  O   HOH     1      10.371   8.965  10.394  0.00  0.00    +0.000 OA
ENDROOT
TORSDOF 0
REMARK  Name = ../refined-set-2016/1ohr/1ohr_pocket.pdb
REMARK  212 active torsions:
REMARK  status: ('A' for Active; 'I' for Inactive)
REMARK    1  A    between atoms: _1  and  _3
REMARK    2  A    between atoms: _3  and  _4
REMARK    3  A    between atoms: _3  and  _6
REMARK    4  A    between atoms: _6  and  _7
REMARK    5  A    between atoms: _7  and  _8
REMARK    6  A    between atoms: _8  and  _9
REMARK    7  A    between atoms: _18  and  _20
REMARK    8  A    between atoms: _20  and  _21
REMARK    9  A    between atoms: _20  and  _23
REMARK   10  A    between atoms: _23  and  _24
REMARK   11  A    between atoms: _27  and  _29
REMARK   12  A    between atoms: _29  and  _30
REMARK   13  A    between atoms: _29  and  _32
REMARK   14  A    between atoms: _32  and  _33
REMARK   15  A    between atoms: _36  and  _38
REMARK   16  A    between atoms: _38  and  _39
REMARK   17  A    between atoms: _38  and  _41
REMARK   18  A    between atoms: _41  and  _42
REMARK   19  A    between atoms: _45  and  _47
REMARK   20  A    between atoms: _47  and  _48
REMARK   21  A    between atoms: _47  and  _50
REMARK   22  A    between atoms: _50  and  _51
REMARK   23  A    between atoms: _54  and  _56
REMARK   24  A    between atoms: _56  and  _57
REMARK   25  A    between atoms: _59  and  _61
REMARK   26  A    between atoms: _61  and  _62
REMARK   27  A    between atoms: _65  and  _67
REMARK   28  A    between atoms: _67  and  _68
REMARK   29  A    between atoms: _67  and  _70
REMARK   30  A    between atoms: _70  and  _71
REMARK   31  A    between atoms: _74  and  _76
REMARK   32  A    between atoms: _76  and  _77
REMARK   33  A    between atoms: _76  and  _79
REMARK   34  A    between atoms: _79  and  _80
REMARK   35  A    between atoms: _83  and  _85
REMARK   36  A    between atoms: _85  and  _86
REMARK   37  A    between atoms: _85  and  _88
REMARK   38  A    between atoms: _88  and  _89
REMARK   39  A    between atoms: _92  and  _94
REMARK   40  A    between atoms: _94  and  _95
REMARK   41  A    between atoms: _94  and  _97
REMARK   42  A    between atoms: _100  and  _102
REMARK   43  A    between atoms: _102  and  _103
REMARK   44  A    between atoms: _102  and  _105
REMARK   45  A    between atoms: _105  and  _106
REMARK   46  A    between atoms: _106  and  _107
REMARK   47  A    between atoms: _109  and  _111
REMARK   48  A    between atoms: _111  and  _112
REMARK   49  A    between atoms: _111  and  _114
REMARK   50  A    between atoms: _114  and  _115
REMARK   51  A    between atoms: _118  and  _120
REMARK   52  A    between atoms: _120  and  _121
REMARK   53  A    between atoms: _123  and  _125
REMARK   54  A    between atoms: _125  and  _126
REMARK   55  A    between atoms: _128  and  _130
REMARK   56  A    between atoms: _130  and  _131
REMARK   57  A    between atoms: _130  and  _133
REMARK   58  A    between atoms: _133  and  _134
REMARK   59  A    between atoms: _137  and  _139
REMARK   60  A    between atoms: _139  and  _140
REMARK   61  A    between atoms: _142  and  _144
REMARK   62  A    between atoms: _144  and  _145
REMARK   63  A    between atoms: _147  and  _149
REMARK   64  A    between atoms: _149  and  _150
REMARK   65  A    between atoms: _149  and  _152
REMARK   66  A    between atoms: _152  and  _153
REMARK   67  A    between atoms: _156  and  _158
REMARK   68  A    between atoms: _158  and  _159
REMARK   69  A    between atoms: _158  and  _161
REMARK   70  A    between atoms: _161  and  _162
REMARK   71  A    between atoms: _166  and  _167
REMARK   72  A    between atoms: _172  and  _174
REMARK   73  A    between atoms: _174  and  _175
REMARK   74  A    between atoms: _174  and  _177
REMARK   75  A    between atoms: _177  and  _178
REMARK   76  A    between atoms: _182  and  _183
REMARK   77  A    between atoms: _188  and  _190
REMARK   78  A    between atoms: _190  and  _191
REMARK   79  A    between atoms: _190  and  _193
REMARK   80  A    between atoms: _196  and  _198
REMARK   81  A    between atoms: _198  and  _199
REMARK   82  A    between atoms: _198  and  _201
REMARK   83  A    between atoms: _201  and  _202
REMARK   84  A    between atoms: _207  and  _209
REMARK   85  A    between atoms: _209  and  _210
REMARK   86  A    between atoms: _209  and  _212
REMARK   87  A    between atoms: _212  and  _213
REMARK   88  A    between atoms: _216  and  _218
REMARK   89  A    between atoms: _218  and  _219
REMARK   90  A    between atoms: _218  and  _221
REMARK   91  A    between atoms: _221  and  _222
REMARK   92  A    between atoms: _225  and  _227
REMARK   93  A    between atoms: _227  and  _228
REMARK   94  A    between atoms: _230  and  _232
REMARK   95  A    between atoms: _232  and  _233
REMARK   96  A    between atoms: _232  and  _235
REMARK   97  A    between atoms: _235  and  _236
REMARK   98  A    between atoms: _236  and  _237
REMARK   99  A    between atoms: _237  and  _238
REMARK  100  A    between atoms: _247  and  _249
REMARK  101  A    between atoms: _249  and  _250
REMARK  102  A    between atoms: _249  and  _252
REMARK  103  A    between atoms: _252  and  _253
REMARK  104  A    between atoms: _258  and  _260
REMARK  105  A    between atoms: _260  and  _261
REMARK  106  A    between atoms: _260  and  _263
REMARK  107  A    between atoms: _263  and  _264
REMARK  108  A    between atoms: _264  and  _265
REMARK  109  A    between atoms: _265  and  _266
REMARK  110  A    between atoms: _275  and  _277
REMARK  111  A    between atoms: _277  and  _278
REMARK  112  A    between atoms: _277  and  _280
REMARK  113  A    between atoms: _280  and  _281
REMARK  114  A    between atoms: _284  and  _286
REMARK  115  A    between atoms: _286  and  _287
REMARK  116  A    between atoms: _286  and  _289
REMARK  117  A    between atoms: _289  and  _290
REMARK  118  A    between atoms: _293  and  _295
REMARK  119  A    between atoms: _295  and  _296
REMARK  120  A    between atoms: _295  and  _298
REMARK  121  A    between atoms: _298  and  _299
REMARK  122  A    between atoms: _302  and  _304
REMARK  123  A    between atoms: _304  and  _305
REMARK  124  A    between atoms: _304  and  _307
REMARK  125  A    between atoms: _307  and  _308
REMARK  126  A    between atoms: _311  and  _313
REMARK  127  A    between atoms: _313  and  _314
REMARK  128  A    between atoms: _313  and  _316
REMARK  129  A    between atoms: _316  and  _317
REMARK  130  A    between atoms: _320  and  _322
REMARK  131  A    between atoms: _322  and  _323
REMARK  132  A    between atoms: _325  and  _327
REMARK  133  A    between atoms: _327  and  _328
REMARK  134  A    between atoms: _331  and  _333
REMARK  135  A    between atoms: _333  and  _334
REMARK  136  A    between atoms: _333  and  _336
REMARK  137  A    between atoms: _336  and  _337
REMARK  138  A    between atoms: _340  and  _342
REMARK  139  A    between atoms: _342  and  _343
REMARK  140  A    between atoms: _342  and  _345
REMARK  141  A    between atoms: _345  and  _346
REMARK  142  A    between atoms: _349  and  _351
REMARK  143  A    between atoms: _351  and  _352
REMARK  144  A    between atoms: _351  and  _354
REMARK  145  A    between atoms: _354  and  _355
REMARK  146  A    between atoms: _358  and  _360
REMARK  147  A    between atoms: _360  and  _361
REMARK  148  A    between atoms: _360  and  _363
REMARK  149  A    between atoms: _366  and  _368
REMARK  150  A    between atoms: _368  and  _369
REMARK  151  A    between atoms: _368  and  _371
REMARK  152  A    between atoms: _371  and  _372
REMARK  153  A    between atoms: _372  and  _373
REMARK  154  A    between atoms: _375  and  _377
REMARK  155  A    between atoms: _377  and  _378
REMARK  156  A    between atoms: _377  and  _380
REMARK  157  A    between atoms: _380  and  _381
REMARK  158  A    between atoms: _384  and  _386
REMARK  159  A    between atoms: _386  and  _387
REMARK  160  A    between atoms: _389  and  _391
REMARK  161  A    between atoms: _391  and  _392
REMARK  162  A    between atoms: _394  and  _396
REMARK  163  A    between atoms: _396  and  _397
REMARK  164  A    between atoms: _396  and  _399
REMARK  165  A    between atoms: _399  and  _400
REMARK  166  A    between atoms: _403  and  _405
REMARK  167  A    between atoms: _405  and  _406
REMARK  168  A    between atoms: _408  and  _410
REMARK  169  A    between atoms: _410  and  _411
REMARK  170  A    between atoms: _413  and  _415
REMARK  171  A    between atoms: _415  and  _416
REMARK  172  A    between atoms: _415  and  _418
REMARK  173  A    between atoms: _418  and  _419
REMARK  174  A    between atoms: _425  and  _427
REMARK  175  A    between atoms: _427  and  _428
REMARK  176  A    between atoms: _427  and  _430
REMARK  177  A    between atoms: _430  and  _431
REMARK  178  A    between atoms: _434  and  _436
REMARK  179  A    between atoms: _436  and  _437
REMARK  180  A    between atoms: _436  and  _439
REMARK  181  A    between atoms: _442  and  _444
REMARK  182  A    between atoms: _444  and  _445
REMARK  183  A    between atoms: _444  and  _447
REMARK  184  A    between atoms: _447  and  _448
REMARK  185  A    between atoms: _451  and  _453
REMARK  186  A    between atoms: _453  and  _454
REMARK  187  A    between atoms: _453  and  _456
REMARK  188  A    between atoms: _456  and  _457
REMARK  189  A    between atoms: _461  and  _462
REMARK  190  A    between atoms: _467  and  _469
REMARK  191  A    between atoms: _469  and  _470
REMARK  192  A    between atoms: _469  and  _472
REMARK  193  A    between atoms: _475  and  _477
REMARK  194  A    between atoms: _477  and  _478
REMARK  195  A    between atoms: _477  and  _480
REMARK  196  A    between atoms: _480  and  _481
REMARK  197  A    between atoms: _486  and  _488
REMARK  198  A    between atoms: _488  and  _489
REMARK  199  A    between atoms: _488  and  _491
REMARK  200  A    between atoms: _491  and  _492
REMARK  201  A    between atoms: _495  and  _497
REMARK  202  A    between atoms: _497  and  _498
REMARK  203  A    between atoms: _497  and  _500
REMARK  204  A    between atoms: _500  and  _501
REMARK  205  A    between atoms: _504  and  _506
REMARK  206  A    between atoms: _506  and  _507
REMARK  207  A    between atoms: _509  and  _511
REMARK  208  A    between atoms: _511  and  _512
REMARK  209  A    between atoms: _511  and  _514
REMARK  210  A    between atoms: _514  and  _515
REMARK  211  A    between atoms: _515  and  _516
REMARK  212  A    between atoms: _516  and  _517
REMARK                            x       y       z     vdW  Elec       q    Type
REMARK                         _______ _______ _______ _____ _____    ______ ____
ROOT
ATOM      1  O   HOH     1       5.020  -5.617  20.608  0.00  0.00    +0.000 OA
ENDROOT
TORSDOF 0
REMARK  Name = ../refined-set-2016/1ohr/1ohr_pocket.pdb
REMARK  212 active torsions:
REMARK  status: ('A' for Active; 'I' for Inactive)
REMARK    1  A    between atoms: _1  and  _3
REMARK    2  A    between atoms: _3  and  _4
REMARK    3  A    between atoms: _3  and  _6
REMARK    4  A    between atoms: _6  and  _7
REMARK    5  A    between atoms: _7  and  _8
REMARK    6  A    between atoms: _8  and  _9
REMARK    7  A    between atoms: _18  and  _20
REMARK    8  A    between atoms: _20  and  _21
REMARK    9  A    between atoms: _20  and  _23
REMARK   10  A    between atoms: _23  and  _24
REMARK   11  A    between atoms: _27  and  _29
REMARK   12  A    between atoms: _29  and  _30
REMARK   13  A    between atoms: _29  and  _32
REMARK   14  A    between atoms: _32  and  _33
REMARK   15  A    between atoms: _36  and  _38
REMARK   16  A    between atoms: _38  and  _39
REMARK   17  A    between atoms: _38  and  _41
REMARK   18  A    between atoms: _41  and  _42
REMARK   19  A    between atoms: _45  and  _47
REMARK   20  A    between atoms: _47  and  _48
REMARK   21  A    between atoms: _47  and  _50
REMARK   22  A    between atoms: _50  and  _51
REMARK   23  A    between atoms: _54  and  _56
REMARK   24  A    between atoms: _56  and  _57
REMARK   25  A    between atoms: _59  and  _61
REMARK   26  A    between atoms: _61  and  _62
REMARK   27  A    between atoms: _65  and  _67
REMARK   28  A    between atoms: _67  and  _68
REMARK   29  A    between atoms: _67  and  _70
REMARK   30  A    between atoms: _70  and  _71
REMARK   31  A    between atoms: _74  and  _76
REMARK   32  A    between atoms: _76  and  _77
REMARK   33  A    between atoms: _76  and  _79
REMARK   34  A    between atoms: _79  and  _80
REMARK   35  A    between atoms: _83  and  _85
REMARK   36  A    between atoms: _85  and  _86
REMARK   37  A    between atoms: _85  and  _88
REMARK   38  A    between atoms: _88  and  _89
REMARK   39  A    between atoms: _92  and  _94
REMARK   40  A    between atoms: _94  and  _95
REMARK   41  A    between atoms: _94  and  _97
REMARK   42  A    between atoms: _100  and  _102
REMARK   43  A    between atoms: _102  and  _103
REMARK   44  A    between atoms: _102  and  _105
REMARK   45  A    between atoms: _105  and  _106
REMARK   46  A    between atoms: _106  and  _107
REMARK   47  A    between atoms: _109  and  _111
REMARK   48  A    between atoms: _111  and  _112
REMARK   49  A    between atoms: _111  and  _114
REMARK   50  A    between atoms: _114  and  _115
REMARK   51  A    between atoms: _118  and  _120
REMARK   52  A    between atoms: _120  and  _121
REMARK   53  A    between atoms: _123  and  _125
REMARK   54  A    between atoms: _125  and  _126
REMARK   55  A    between atoms: _128  and  _130
REMARK   56  A    between atoms: _130  and  _131
REMARK   57  A    between atoms: _130  and  _133
REMARK   58  A    between atoms: _133  and  _134
REMARK   59  A    between atoms: _137  and  _139
REMARK   60  A    between atoms: _139  and  _140
REMARK   61  A    between atoms: _142  and  _144
REMARK   62  A    between atoms: _144  and  _145
REMARK   63  A    between atoms: _147  and  _149
REMARK   64  A    between atoms: _149  and  _150
REMARK   65  A    between atoms: _149  and  _152
REMARK   66  A    between atoms: _152  and  _153
REMARK   67  A    between atoms: _156  and  _158
REMARK   68  A    between atoms: _158  and  _159
REMARK   69  A    between atoms: _158  and  _161
REMARK   70  A    between atoms: _161  and  _162
REMARK   71  A    between atoms: _166  and  _167
REMARK   72  A    between atoms: _172  and  _174
REMARK   73  A    between atoms: _174  and  _175
REMARK   74  A    between atoms: _174  and  _177
REMARK   75  A    between atoms: _177  and  _178
REMARK   76  A    between atoms: _182  and  _183
REMARK   77  A    between atoms: _188  and  _190
REMARK   78  A    between atoms: _190  and  _191
REMARK   79  A    between atoms: _190  and  _193
REMARK   80  A    between atoms: _196  and  _198
REMARK   81  A    between atoms: _198  and  _199
REMARK   82  A    between atoms: _198  and  _201
REMARK   83  A    between atoms: _201  and  _202
REMARK   84  A    between atoms: _207  and  _209
REMARK   85  A    between atoms: _209  and  _210
REMARK   86  A    between atoms: _209  and  _212
REMARK   87  A    between atoms: _212  and  _213
REMARK   88  A    between atoms: _216  and  _218
REMARK   89  A    between atoms: _218  and  _219
REMARK   90  A    between atoms: _218  and  _221
REMARK   91  A    between atoms: _221  and  _222
REMARK   92  A    between atoms: _225  and  _227
REMARK   93  A    between atoms: _227  and  _228
REMARK   94  A    between atoms: _230  and  _232
REMARK   95  A    between atoms: _232  and  _233
REMARK   96  A    between atoms: _232  and  _235
REMARK   97  A    between atoms: _235  and  _236
REMARK   98  A    between atoms: _236  and  _237
REMARK   99  A    between atoms: _237  and  _238
REMARK  100  A    between atoms: _247  and  _249
REMARK  101  A    between atoms: _249  and  _250
REMARK  102  A    between atoms: _249  and  _252
REMARK  103  A    between atoms: _252  and  _253
REMARK  104  A    between atoms: _258  and  _260
REMARK  105  A    between atoms: _260  and  _261
REMARK  106  A    between atoms: _260  and  _263
REMARK  107  A    between atoms: _263  and  _264
REMARK  108  A    between atoms: _264  and  _265
REMARK  109  A    between atoms: _265  and  _266
REMARK  110  A    between atoms: _275  and  _277
REMARK  111  A    between atoms: _277  and  _278
REMARK  112  A    between atoms: _277  and  _280
REMARK  113  A    between atoms: _280  and  _281
REMARK  114  A    between atoms: _284  and  _286
REMARK  115  A    between atoms: _286  and  _287
REMARK  116  A    between atoms: _286  and  _289
REMARK  117  A    between atoms: _289  and  _290
REMARK  118  A    between atoms: _293  and  _295
REMARK  119  A    between atoms: _295  and  _296
REMARK  120  A    between atoms: _295  and  _298
REMARK  121  A    between atoms: _298  and  _299
REMARK  122  A    between atoms: _302  and  _304
REMARK  123  A    between atoms: _304  and  _305
REMARK  124  A    between atoms: _304  and  _307
REMARK  125  A    between atoms: _307  and  _308
REMARK  126  A    between atoms: _311  and  _313
REMARK  127  A    between atoms: _313  and  _314
REMARK  128  A    between atoms: _313  and  _316
REMARK  129  A    between atoms: _316  and  _317
REMARK  130  A    between atoms: _320  and  _322
REMARK  131  A    between atoms: _322  and  _323
REMARK  132  A    between atoms: _325  and  _327
REMARK  133  A    between atoms: _327  and  _328
REMARK  134  A    between atoms: _331  and  _333
REMARK  135  A    between atoms: _333  and  _334
REMARK  136  A    between atoms: _333  and  _336
REMARK  137  A    between atoms: _336  and  _337
REMARK  138  A    between atoms: _340  and  _342
REMARK  139  A    between atoms: _342  and  _343
REMARK  140  A    between atoms: _342  and  _345
REMARK  141  A    between atoms: _345  and  _346
REMARK  142  A    between atoms: _349  and  _351
REMARK  143  A    between atoms: _351  and  _352
REMARK  144  A    between atoms: _351  and  _354
REMARK  145  A    between atoms: _354  and  _355
REMARK  146  A    between atoms: _358  and  _360
REMARK  147  A    between atoms: _360  and  _361
REMARK  148  A    between atoms: _360  and  _363
REMARK  149  A    between atoms: _366  and  _368
REMARK  150  A    between atoms: _368  and  _369
REMARK  151  A    between atoms: _368  and  _371
REMARK  152  A    between atoms: _371  and  _372
REMARK  153  A    between atoms: _372  and  _373
REMARK  154  A    between atoms: _375  and  _377
REMARK  155  A    between atoms: _377  and  _378
REMARK  156  A    between atoms: _377  and  _380
REMARK  157  A    between atoms: _380  and  _381
REMARK  158  A    between atoms: _384  and  _386
REMARK  159  A    between atoms: _386  and  _387
REMARK  160  A    between atoms: _389  and  _391
REMARK  161  A    between atoms: _391  and  _392
REMARK  162  A    between atoms: _394  and  _396
REMARK  163  A    between atoms: _396  and  _397
REMARK  164  A    between atoms: _396  and  _399
REMARK  165  A    between atoms: _399  and  _400
REMARK  166  A    between atoms: _403  and  _405
REMARK  167  A    between atoms: _405  and  _406
REMARK  168  A    between atoms: _408  and  _410
REMARK  169  A    between atoms: _410  and  _411
REMARK  170  A    between atoms: _413  and  _415
REMARK  171  A    between atoms: _415  and  _416
REMARK  172  A    between atoms: _415  and  _418
REMARK  173  A    between atoms: _418  and  _419
REMARK  174  A    between atoms: _425  and  _427
REMARK  175  A    between atoms: _427  and  _428
REMARK  176  A    between atoms: _427  and  _430
REMARK  177  A    between atoms: _430  and  _431
REMARK  178  A    between atoms: _434  and  _436
REMARK  179  A    between atoms: _436  and  _437
REMARK  180  A    between atoms: _436  and  _439
REMARK  181  A    between atoms: _442  and  _444
REMARK  182  A    between atoms: _444  and  _445
REMARK  183  A    between atoms: _444  and  _447
REMARK  184  A    between atoms: _447  and  _448
REMARK  185  A    between atoms: _451  and  _453
REMARK  186  A    between atoms: _453  and  _454
REMARK  187  A    between atoms: _453  and  _456
REMARK  188  A    between atoms: _456  and  _457
REMARK  189  A    between atoms: _461  and  _462
REMARK  190  A    between atoms: _467  and  _469
REMARK  191  A    between atoms: _469  and  _470
REMARK  192  A    between atoms: _469  and  _472
REMARK  193  A    between atoms: _475  and  _477
REMARK  194  A    between atoms: _477  and  _478
REMARK  195  A    between atoms: _477  and  _480
REMARK  196  A    between atoms: _480  and  _481
REMARK  197  A    between atoms: _486  and  _488
REMARK  198  A    between atoms: _488  and  _489
REMARK  199  A    between atoms: _488  and  _491
REMARK  200  A    between atoms: _491  and  _492
REMARK  201  A    between atoms: _495  and  _497
REMARK  202  A    between atoms: _497  and  _498
REMARK  203  A    between atoms: _497  and  _500
REMARK  204  A    between atoms: _500  and  _501
REMARK  205  A    between atoms: _504  and  _506
REMARK  206  A    between atoms: _506  and  _507
REMARK  207  A    between atoms: _509  and  _511
REMARK  208  A    between atoms: _511  and  _512
REMARK  209  A    between atoms: _511  and  _514
REMARK  210  A    between atoms: _514  and  _515
REMARK  211  A    between atoms: _515  and  _516
REMARK  212  A    between atoms: _516  and  _517
REMARK                            x       y       z     vdW  Elec       q    Type
REMARK                         _______ _______ _______ _____ _____    ______ ____
ROOT
ATOM      1  O   HOH     1      -0.200  -8.907   8.539  0.00  0.00    +0.000 OA
ENDROOT
TORSDOF 0
