REMARK  Name = ../refined-set-2016/1x1z/1x1z_pocket.pdb
REMARK  211 active torsions:
REMARK  status: ('A' for Active; 'I' for Inactive)
REMARK    1  A    between atoms: _1  and  _3
REMARK    2  A    between atoms: _3  and  _4
REMARK    3  A    between atoms: _3  and  _6
REMARK    4  A    between atoms: _6  and  _7
REMARK    5  A    between atoms: _10  and  _12
REMARK    6  A    between atoms: _12  and  _13
REMARK    7  A    between atoms: _12  and  _15
REMARK    8  A    between atoms: _15  and  _16
REMARK    9  A    between atoms: _19  and  _21
REMARK   10  A    between atoms: _21  and  _22
REMARK   11  A    between atoms: _25  and  _27
REMARK   12  A    between atoms: _27  and  _28
REMARK   13  A    between atoms: _27  and  _30
REMARK   14  A    between atoms: _30  and  _31
REMARK   15  A    between atoms: _31  and  _32
REMARK   16  A    between atoms: _34  and  _36
REMARK   17  A    between atoms: _36  and  _37
REMARK   18  A    between atoms: _36  and  _39
REMARK   19  A    between atoms: _39  and  _40
REMARK   20  A    between atoms: _43  and  _45
REMARK   21  A    between atoms: _45  and  _46
REMARK   22  A    between atoms: _45  and  _48
REMARK   23  A    between atoms: _48  and  _49
REMARK   24  A    between atoms: _49  and  _50
REMARK   25  A    between atoms: _50  and  _51
REMARK   26  A    between atoms: _51  and  _52
REMARK   27  A    between atoms: _56  and  _58
REMARK   28  A    between atoms: _58  and  _59
REMARK   29  A    between atoms: _58  and  _61
REMARK   30  A    between atoms: _61  and  _62
REMARK   31  A    between atoms: _65  and  _67
REMARK   32  A    between atoms: _67  and  _68
REMARK   33  A    between atoms: _70  and  _72
REMARK   34  A    between atoms: _72  and  _73
REMARK   35  A    between atoms: _72  and  _75
REMARK   36  A    between atoms: _75  and  _76
REMARK   37  A    between atoms: _81  and  _82
REMARK   38  A    between atoms: _85  and  _86
REMARK   39  A    between atoms: _91  and  _93
REMARK   40  A    between atoms: _93  and  _94
REMARK   41  A    between atoms: _93  and  _96
REMARK   42  A    between atoms: _96  and  _97
REMARK   43  A    between atoms: _100  and  _102
REMARK   44  A    between atoms: _102  and  _103
REMARK   45  A    between atoms: _102  and  _105
REMARK   46  A    between atoms: _105  and  _106
REMARK   47  A    between atoms: _109  and  _111
REMARK   48  A    between atoms: _111  and  _112
REMARK   49  A    between atoms: _111  and  _114
REMARK   50  A    between atoms: _114  and  _115
REMARK   51  A    between atoms: _121  and  _123
REMARK   52  A    between atoms: _123  and  _124
REMARK   53  A    between atoms: _123  and  _126
REMARK   54  A    between atoms: _126  and  _127
REMARK   55  A    between atoms: _127  and  _128
REMARK   56  A    between atoms: _128  and  _129
REMARK   57  A    between atoms: _129  and  _130
REMARK   58  A    between atoms: _134  and  _136
REMARK   59  A    between atoms: _136  and  _137
REMARK   60  A    between atoms: _136  and  _139
REMARK   61  A    between atoms: _139  and  _140
REMARK   62  A    between atoms: _143  and  _145
REMARK   63  A    between atoms: _145  and  _146
REMARK   64  A    between atoms: _145  and  _148
REMARK   65  A    between atoms: _148  and  _149
REMARK   66  A    between atoms: _154  and  _156
REMARK   67  A    between atoms: _156  and  _157
REMARK   68  A    between atoms: _156  and  _159
REMARK   69  A    between atoms: _159  and  _160
REMARK   70  A    between atoms: _163  and  _165
REMARK   71  A    between atoms: _165  and  _166
REMARK   72  A    between atoms: _165  and  _168
REMARK   73  A    between atoms: _168  and  _169
REMARK   74  A    between atoms: _172  and  _174
REMARK   75  A    between atoms: _174  and  _175
REMARK   76  A    between atoms: _174  and  _177
REMARK   77  A    between atoms: _177  and  _178
REMARK   78  A    between atoms: _178  and  _179
REMARK   79  A    between atoms: _182  and  _184
REMARK   80  A    between atoms: _184  and  _185
REMARK   81  A    between atoms: _184  and  _187
REMARK   82  A    between atoms: _187  and  _188
REMARK   83  A    between atoms: _188  and  _189
REMARK   84  A    between atoms: _191  and  _193
REMARK   85  A    between atoms: _193  and  _194
REMARK   86  A    between atoms: _193  and  _196
REMARK   87  A    between atoms: _196  and  _197
REMARK   88  A    between atoms: _199  and  _201
REMARK   89  A    between atoms: _201  and  _202
REMARK   90  A    between atoms: _201  and  _204
REMARK   91  A    between atoms: _204  and  _205
REMARK   92  A    between atoms: _210  and  _212
REMARK   93  A    between atoms: _212  and  _213
REMARK   94  A    between atoms: _216  and  _218
REMARK   95  A    between atoms: _218  and  _219
REMARK   96  A    between atoms: _218  and  _221
REMARK   97  A    between atoms: _221  and  _222
REMARK   98  A    between atoms: _225  and  _227
REMARK   99  A    between atoms: _227  and  _228
REMARK  100  A    between atoms: _227  and  _230
REMARK  101  A    between atoms: _233  and  _235
REMARK  102  A    between atoms: _235  and  _236
REMARK  103  A    between atoms: _239  and  _240
REMARK  104  A    between atoms: _245  and  _247
REMARK  105  A    between atoms: _247  and  _248
REMARK  106  A    between atoms: _247  and  _250
REMARK  107  A    between atoms: _250  and  _251
REMARK  108  A    between atoms: _253  and  _255
REMARK  109  A    between atoms: _255  and  _256
REMARK  110  A    between atoms: _255  and  _258
REMARK  111  A    between atoms: _258  and  _259
REMARK  112  A    between atoms: _262  and  _264
REMARK  113  A    between atoms: _264  and  _265
REMARK  114  A    between atoms: _264  and  _267
REMARK  115  A    between atoms: _267  and  _268
REMARK  116  A    between atoms: _268  and  _269
REMARK  117  A    between atoms: _269  and  _270
REMARK  118  A    between atoms: _279  and  _281
REMARK  119  A    between atoms: _281  and  _282
REMARK  120  A    between atoms: _281  and  _284
REMARK  121  A    between atoms: _284  and  _285
REMARK  122  A    between atoms: _288  and  _290
REMARK  123  A    between atoms: _290  and  _291
REMARK  124  A    between atoms: _290  and  _293
REMARK  125  A    between atoms: _293  and  _294
REMARK  126  A    between atoms: _297  and  _298
REMARK  127  A    between atoms: _303  and  _305
REMARK  128  A    between atoms: _305  and  _306
REMARK  129  A    between atoms: _308  and  _310
REMARK  130  A    between atoms: _310  and  _311
REMARK  131  A    between atoms: _310  and  _313
REMARK  132  A    between atoms: _316  and  _318
REMARK  133  A    between atoms: _318  and  _319
REMARK  134  A    between atoms: _321  and  _323
REMARK  135  A    between atoms: _323  and  _324
REMARK  136  A    between atoms: _327  and  _329
REMARK  137  A    between atoms: _329  and  _330
REMARK  138  A    between atoms: _329  and  _332
REMARK  139  A    between atoms: _332  and  _333
REMARK  140  A    between atoms: _333  and  _334
REMARK  141  A    between atoms: _339  and  _341
REMARK  142  A    between atoms: _341  and  _342
REMARK  143  A    between atoms: _344  and  _346
REMARK  144  A    between atoms: _346  and  _347
REMARK  145  A    between atoms: _349  and  _351
REMARK  146  A    between atoms: _351  and  _352
REMARK  147  A    between atoms: _351  and  _354
REMARK  148  A    between atoms: _354  and  _355
REMARK  149  A    between atoms: _358  and  _360
REMARK  150  A    between atoms: _360  and  _361
REMARK  151  A    between atoms: _360  and  _363
REMARK  152  A    between atoms: _366  and  _368
REMARK  153  A    between atoms: _368  and  _369
REMARK  154  A    between atoms: _371  and  _373
REMARK  155  A    between atoms: _373  and  _374
REMARK  156  A    between atoms: _373  and  _376
REMARK  157  A    between atoms: _376  and  _377
REMARK  158  A    between atoms: _377  and  _378
REMARK  159  A    between atoms: _378  and  _379
REMARK  160  A    between atoms: _388  and  _390
REMARK  161  A    between atoms: _390  and  _391
REMARK  162  A    between atoms: _390  and  _393
REMARK  163  A    between atoms: _393  and  _394
REMARK  164  A    between atoms: _396  and  _398
REMARK  165  A    between atoms: _398  and  _399
REMARK  166  A    between atoms: _398  and  _401
REMARK  167  A    between atoms: _401  and  _402
REMARK  168  A    between atoms: _405  and  _407
REMARK  169  A    between atoms: _407  and  _408
REMARK  170  A    between atoms: _407  and  _410
REMARK  171  A    between atoms: _410  and  _411
REMARK  172  A    between atoms: _416  and  _417
REMARK  173  A    between atoms: _419  and  _421
REMARK  174  A    between atoms: _421  and  _422
REMARK  175  A    between atoms: _421  and  _424
REMARK  176  A    between atoms: _424  and  _425
REMARK  177  A    between atoms: _428  and  _430
REMARK  178  A    between atoms: _430  and  _431
REMARK  179  A    between atoms: _434  and  _436
REMARK  180  A    between atoms: _436  and  _437
REMARK  181  A    between atoms: _436  and  _439
REMARK  182  A    between atoms: _439  and  _440
REMARK  183  A    between atoms: _443  and  _445
REMARK  184  A    between atoms: _445  and  _446
REMARK  185  A    between atoms: _445  and  _448
REMARK  186  A    between atoms: _448  and  _449
REMARK  187  A    between atoms: _453  and  _454
REMARK  188  A    between atoms: _459  and  _461
REMARK  189  A    between atoms: _461  and  _462
REMARK  190  A    between atoms: _461  and  _464
REMARK  191  A    between atoms: _464  and  _465
REMARK  192  A    between atoms: _465  and  _466
REMARK  193  A    between atoms: _469  and  _471
REMARK  194  A    between atoms: _471  and  _472
REMARK  195  A    between atoms: _471  and  _474
REMARK  196  A    between atoms: _474  and  _475
REMARK  197  A    between atoms: _478  and  _480
REMARK  198  A    between atoms: _480  and  _481
REMARK  199  A    between atoms: _480  and  _483
REMARK  200  A    between atoms: _483  and  _484
REMARK  201  A    between atoms: _489  and  _491
REMARK  202  A    between atoms: _491  and  _492
REMARK  203  A    between atoms: _491  and  _494
REMARK  204  A    between atoms: _494  and  _495
REMARK  205  A    between atoms: _495  and  _496
REMARK  206  A    between atoms: _496  and  _497
REMARK  207  A    between atoms: _497  and  _498
REMARK  208  A    between atoms: _502  and  _504
REMARK  209  A    between atoms: _504  and  _505
REMARK  210  A    between atoms: _504  and  _507
REMARK  211  A    between atoms: _507  and  _508
REMARK                            x       y       z     vdW  Elec       q    Type
REMARK                         _______ _______ _______ _____ _____    ______ ____
ROOT
ATOM      1  CA  ALA A   3      20.114 -20.637  10.511  0.00  0.00    +0.149 C 
ATOM      2  CB  ALA A   3      21.407 -19.851  10.581  0.00  0.00    +0.031 C 
ENDROOT
BRANCH   1   3
ATOM      3  C   ALA A   3      18.905 -19.695  10.493  0.00  0.00    +0.241 C 
ATOM      4  N   MET A   4      17.856 -20.084  11.211  0.00  0.00    -0.297 N 
ATOM      5  H   MET A   4      17.908 -20.945  11.792  0.00  0.00    +0.150 HD
ATOM      6  O   ALA A   3      18.915 -18.645   9.827  0.00  0.00    -0.273 OA
BRANCH   4   7
ATOM      7  CA  MET A   4      16.621 -19.287  11.176  0.00  0.00    +0.149 C 
BRANCH   7   8
ATOM      8  C   MET A   4      16.616 -18.237  12.280  0.00  0.00    +0.241 C 
ATOM      9  O   MET A   4      16.092 -18.470  13.392  0.00  0.00    -0.273 OA
ATOM     10  N   ASP A   5      17.170 -17.066  11.922  0.00  0.00    -0.298 N 
ATOM     11  H   ASP A   5      17.501 -16.957  10.942  0.00  0.00    +0.150 HD
BRANCH  10  12
ATOM     12  CA  ASP A   5      17.331 -15.941  12.833  0.00  0.00    +0.148 C 
BRANCH  12  13
ATOM     13  C   ASP A   5      16.381 -14.784  12.588  0.00  0.00    +0.227 C 
ATOM     14  O   ASP A   5      16.606 -13.687  13.093  0.00  0.00    -0.286 OA
ENDBRANCH  12  13
BRANCH  12  15
ATOM     15  CB  ASP A   5      18.804 -15.453  12.849  0.00  0.00    +0.142 C 
BRANCH  15  16
ATOM     16  CG  ASP A   5      19.772 -16.536  13.330  0.00  0.00    +0.367 C 
ATOM     17  OD2 ASP A   5      19.518 -17.178  14.371  0.00  0.00    -0.246 OA
ATOM     18  OD1 ASP A   5      20.809 -16.720  12.643  0.00  0.00    -0.246 OA
ENDBRANCH  15  16
ENDBRANCH  12  15
ENDBRANCH  10  12
ENDBRANCH   7   8
BRANCH   7  19
ATOM     19  CB  MET A   4      15.416 -20.242  11.276  0.00  0.00    +0.041 C 
BRANCH  19  20
ATOM     20  CG  MET A   4      14.058 -19.558  11.271  0.00  0.00    +0.060 C 
BRANCH  20  21
ATOM     21  SD  MET A   4      13.931 -18.072  10.227  0.00  0.00    -0.139 S 
ATOM     22  CE  MET A   4      14.243 -18.771   8.596  0.00  0.00    +0.069 C 
ENDBRANCH  20  21
ENDBRANCH  19  20
ENDBRANCH   7  19
ENDBRANCH   4   7
ENDBRANCH   1   3
BRANCH   1  25
ATOM     23  C   LEU A   2      19.399 -22.559   9.189  0.00  0.00    +0.241 C 
ATOM     24  O   LEU A   2      18.932 -23.107  10.180  0.00  0.00    -0.273 OA
ATOM     25  N   ALA A   3      20.045 -21.391   9.248  0.00  0.00    -0.297 N 
ATOM     26  H   ALA A   3      20.503 -21.011   8.395  0.00  0.00    +0.150 HD
BRANCH  23  27
ATOM     27  CA  LEU A   2      19.264 -23.227   7.807  0.00  0.00    +0.149 C 
BRANCH  27  29
ATOM     28  C   ILE A   1      21.044 -24.852   7.700  0.00  0.00    +0.238 C 
ATOM     29  N   LEU A   2      19.760 -24.590   7.841  0.00  0.00    -0.297 N 
ATOM     30  H   LEU A   2      19.091 -25.374   7.979  0.00  0.00    +0.150 HD
ATOM     31  O   ILE A   1      21.884 -23.975   7.548  0.00  0.00    -0.274 OA
BRANCH  28  32
ATOM     32  CA  ILE A   1      21.458 -26.314   7.757  0.00  0.00    +0.145 C 
BRANCH  32  33
ATOM     33  CB  ILE A   1      22.335 -26.550   9.036  0.00  0.00    +0.025 C 
ATOM     34  CG2 ILE A   1      21.573 -26.107  10.285  0.00  0.00    +0.002 C 
BRANCH  33  35
ATOM     35  CG1 ILE A   1      22.716 -28.038   9.115  0.00  0.00    +0.002 C 
ATOM     36  CD1 ILE A   1      23.808 -28.316  10.154  0.00  0.00    +0.000 C 
ENDBRANCH  33  35
ENDBRANCH  32  33
BRANCH  32  37
ATOM     37  N   ILE A   1      22.245 -26.584   6.561  0.00  0.00    -0.238 NA
ATOM     38  H   ILE A   1      23.160 -26.101   6.460  0.00  0.00    +0.142 HD
ENDBRANCH  32  37
ENDBRANCH  28  32
ENDBRANCH  27  29
BRANCH  27  39
ATOM     39  CB  LEU A   2      17.791 -23.255   7.420  0.00  0.00    +0.029 C 
BRANCH  39  40
ATOM     40  CG  LEU A   2      17.058 -21.898   7.536  0.00  0.00    +0.002 C 
ATOM     41  CD2 LEU A   2      15.540 -22.165   7.316  0.00  0.00    +0.000 C 
ATOM     42  CD1 LEU A   2      17.554 -20.878   6.496  0.00  0.00    +0.000 C 
ENDBRANCH  39  40
ENDBRANCH  27  39
ENDBRANCH  23  27
ENDBRANCH   1  25
TORSDOF 19
REMARK  Name = ../refined-set-2016/1x1z/1x1z_pocket.pdb
REMARK  211 active torsions:
REMARK  status: ('A' for Active; 'I' for Inactive)
REMARK    1  A    between atoms: _1  and  _3
REMARK    2  A    between atoms: _3  and  _4
REMARK    3  A    between atoms: _3  and  _6
REMARK    4  A    between atoms: _6  and  _7
REMARK    5  A    between atoms: _10  and  _12
REMARK    6  A    between atoms: _12  and  _13
REMARK    7  A    between atoms: _12  and  _15
REMARK    8  A    between atoms: _15  and  _16
REMARK    9  A    between atoms: _19  and  _21
REMARK   10  A    between atoms: _21  and  _22
REMARK   11  A    between atoms: _25  and  _27
REMARK   12  A    between atoms: _27  and  _28
REMARK   13  A    between atoms: _27  and  _30
REMARK   14  A    between atoms: _30  and  _31
REMARK   15  A    between atoms: _31  and  _32
REMARK   16  A    between atoms: _34  and  _36
REMARK   17  A    between atoms: _36  and  _37
REMARK   18  A    between atoms: _36  and  _39
REMARK   19  A    between atoms: _39  and  _40
REMARK   20  A    between atoms: _43  and  _45
REMARK   21  A    between atoms: _45  and  _46
REMARK   22  A    between atoms: _45  and  _48
REMARK   23  A    between atoms: _48  and  _49
REMARK   24  A    between atoms: _49  and  _50
REMARK   25  A    between atoms: _50  and  _51
REMARK   26  A    between atoms: _51  and  _52
REMARK   27  A    between atoms: _56  and  _58
REMARK   28  A    between atoms: _58  and  _59
REMARK   29  A    between atoms: _58  and  _61
REMARK   30  A    between atoms: _61  and  _62
REMARK   31  A    between atoms: _65  and  _67
REMARK   32  A    between atoms: _67  and  _68
REMARK   33  A    between atoms: _70  and  _72
REMARK   34  A    between atoms: _72  and  _73
REMARK   35  A    between atoms: _72  and  _75
REMARK   36  A    between atoms: _75  and  _76
REMARK   37  A    between atoms: _81  and  _82
REMARK   38  A    between atoms: _85  and  _86
REMARK   39  A    between atoms: _91  and  _93
REMARK   40  A    between atoms: _93  and  _94
REMARK   41  A    between atoms: _93  and  _96
REMARK   42  A    between atoms: _96  and  _97
REMARK   43  A    between atoms: _100  and  _102
REMARK   44  A    between atoms: _102  and  _103
REMARK   45  A    between atoms: _102  and  _105
REMARK   46  A    between atoms: _105  and  _106
REMARK   47  A    between atoms: _109  and  _111
REMARK   48  A    between atoms: _111  and  _112
REMARK   49  A    between atoms: _111  and  _114
REMARK   50  A    between atoms: _114  and  _115
REMARK   51  A    between atoms: _121  and  _123
REMARK   52  A    between atoms: _123  and  _124
REMARK   53  A    between atoms: _123  and  _126
REMARK   54  A    between atoms: _126  and  _127
REMARK   55  A    between atoms: _127  and  _128
REMARK   56  A    between atoms: _128  and  _129
REMARK   57  A    between atoms: _129  and  _130
REMARK   58  A    between atoms: _134  and  _136
REMARK   59  A    between atoms: _136  and  _137
REMARK   60  A    between atoms: _136  and  _139
REMARK   61  A    between atoms: _139  and  _140
REMARK   62  A    between atoms: _143  and  _145
REMARK   63  A    between atoms: _145  and  _146
REMARK   64  A    between atoms: _145  and  _148
REMARK   65  A    between atoms: _148  and  _149
REMARK   66  A    between atoms: _154  and  _156
REMARK   67  A    between atoms: _156  and  _157
REMARK   68  A    between atoms: _156  and  _159
REMARK   69  A    between atoms: _159  and  _160
REMARK   70  A    between atoms: _163  and  _165
REMARK   71  A    between atoms: _165  and  _166
REMARK   72  A    between atoms: _165  and  _168
REMARK   73  A    between atoms: _168  and  _169
REMARK   74  A    between atoms: _172  and  _174
REMARK   75  A    between atoms: _174  and  _175
REMARK   76  A    between atoms: _174  and  _177
REMARK   77  A    between atoms: _177  and  _178
REMARK   78  A    between atoms: _178  and  _179
REMARK   79  A    between atoms: _182  and  _184
REMARK   80  A    between atoms: _184  and  _185
REMARK   81  A    between atoms: _184  and  _187
REMARK   82  A    between atoms: _187  and  _188
REMARK   83  A    between atoms: _188  and  _189
REMARK   84  A    between atoms: _191  and  _193
REMARK   85  A    between atoms: _193  and  _194
REMARK   86  A    between atoms: _193  and  _196
REMARK   87  A    between atoms: _196  and  _197
REMARK   88  A    between atoms: _199  and  _201
REMARK   89  A    between atoms: _201  and  _202
REMARK   90  A    between atoms: _201  and  _204
REMARK   91  A    between atoms: _204  and  _205
REMARK   92  A    between atoms: _210  and  _212
REMARK   93  A    between atoms: _212  and  _213
REMARK   94  A    between atoms: _216  and  _218
REMARK   95  A    between atoms: _218  and  _219
REMARK   96  A    between atoms: _218  and  _221
REMARK   97  A    between atoms: _221  and  _222
REMARK   98  A    between atoms: _225  and  _227
REMARK   99  A    between atoms: _227  and  _228
REMARK  100  A    between atoms: _227  and  _230
REMARK  101  A    between atoms: _233  and  _235
REMARK  102  A    between atoms: _235  and  _236
REMARK  103  A    between atoms: _239  and  _240
REMARK  104  A    between atoms: _245  and  _247
REMARK  105  A    between atoms: _247  and  _248
REMARK  106  A    between atoms: _247  and  _250
REMARK  107  A    between atoms: _250  and  _251
REMARK  108  A    between atoms: _253  and  _255
REMARK  109  A    between atoms: _255  and  _256
REMARK  110  A    between atoms: _255  and  _258
REMARK  111  A    between atoms: _258  and  _259
REMARK  112  A    between atoms: _262  and  _264
REMARK  113  A    between atoms: _264  and  _265
REMARK  114  A    between atoms: _264  and  _267
REMARK  115  A    between atoms: _267  and  _268
REMARK  116  A    between atoms: _268  and  _269
REMARK  117  A    between atoms: _269  and  _270
REMARK  118  A    between atoms: _279  and  _281
REMARK  119  A    between atoms: _281  and  _282
REMARK  120  A    between atoms: _281  and  _284
REMARK  121  A    between atoms: _284  and  _285
REMARK  122  A    between atoms: _288  and  _290
REMARK  123  A    between atoms: _290  and  _291
REMARK  124  A    between atoms: _290  and  _293
REMARK  125  A    between atoms: _293  and  _294
REMARK  126  A    between atoms: _297  and  _298
REMARK  127  A    between atoms: _303  and  _305
REMARK  128  A    between atoms: _305  and  _306
REMARK  129  A    between atoms: _308  and  _310
REMARK  130  A    between atoms: _310  and  _311
REMARK  131  A    between atoms: _310  and  _313
REMARK  132  A    between atoms: _316  and  _318
REMARK  133  A    between atoms: _318  and  _319
REMARK  134  A    between atoms: _321  and  _323
REMARK  135  A    between atoms: _323  and  _324
REMARK  136  A    between atoms: _327  and  _329
REMARK  137  A    between atoms: _329  and  _330
REMARK  138  A    between atoms: _329  and  _332
REMARK  139  A    between atoms: _332  and  _333
REMARK  140  A    between atoms: _333  and  _334
REMARK  141  A    between atoms: _339  and  _341
REMARK  142  A    between atoms: _341  and  _342
REMARK  143  A    between atoms: _344  and  _346
REMARK  144  A    between atoms: _346  and  _347
REMARK  145  A    between atoms: _349  and  _351
REMARK  146  A    between atoms: _351  and  _352
REMARK  147  A    between atoms: _351  and  _354
REMARK  148  A    between atoms: _354  and  _355
REMARK  149  A    between atoms: _358  and  _360
REMARK  150  A    between atoms: _360  and  _361
REMARK  151  A    between atoms: _360  and  _363
REMARK  152  A    between atoms: _366  and  _368
REMARK  153  A    between atoms: _368  and  _369
REMARK  154  A    between atoms: _371  and  _373
REMARK  155  A    between atoms: _373  and  _374
REMARK  156  A    between atoms: _373  and  _376
REMARK  157  A    between atoms: _376  and  _377
REMARK  158  A    between atoms: _377  and  _378
REMARK  159  A    between atoms: _378  and  _379
REMARK  160  A    between atoms: _388  and  _390
REMARK  161  A    between atoms: _390  and  _391
REMARK  162  A    between atoms: _390  and  _393
REMARK  163  A    between atoms: _393  and  _394
REMARK  164  A    between atoms: _396  and  _398
REMARK  165  A    between atoms: _398  and  _399
REMARK  166  A    between atoms: _398  and  _401
REMARK  167  A    between atoms: _401  and  _402
REMARK  168  A    between atoms: _405  and  _407
REMARK  169  A    between atoms: _407  and  _408
REMARK  170  A    between atoms: _407  and  _410
REMARK  171  A    between atoms: _410  and  _411
REMARK  172  A    between atoms: _416  and  _417
REMARK  173  A    between atoms: _419  and  _421
REMARK  174  A    between atoms: _421  and  _422
REMARK  175  A    between atoms: _421  and  _424
REMARK  176  A    between atoms: _424  and  _425
REMARK  177  A    between atoms: _428  and  _430
REMARK  178  A    between atoms: _430  and  _431
REMARK  179  A    between atoms: _434  and  _436
REMARK  180  A    between atoms: _436  and  _437
REMARK  181  A    between atoms: _436  and  _439
REMARK  182  A    between atoms: _439  and  _440
REMARK  183  A    between atoms: _443  and  _445
REMARK  184  A    between atoms: _445  and  _446
REMARK  185  A    between atoms: _445  and  _448
REMARK  186  A    between atoms: _448  and  _449
REMARK  187  A    between atoms: _453  and  _454
REMARK  188  A    between atoms: _459  and  _461
REMARK  189  A    between atoms: _461  and  _462
REMARK  190  A    between atoms: _461  and  _464
REMARK  191  A    between atoms: _464  and  _465
REMARK  192  A    between atoms: _465  and  _466
REMARK  193  A    between atoms: _469  and  _471
REMARK  194  A    between atoms: _471  and  _472
REMARK  195  A    between atoms: _471  and  _474
REMARK  196  A    between atoms: _474  and  _475
REMARK  197  A    between atoms: _478  and  _480
REMARK  198  A    between atoms: _480  and  _481
REMARK  199  A    between atoms: _480  and  _483
REMARK  200  A    between atoms: _483  and  _484
REMARK  201  A    between atoms: _489  and  _491
REMARK  202  A    between atoms: _491  and  _492
REMARK  203  A    between atoms: _491  and  _494
REMARK  204  A    between atoms: _494  and  _495
REMARK  205  A    between atoms: _495  and  _496
REMARK  206  A    between atoms: _496  and  _497
REMARK  207  A    between atoms: _497  and  _498
REMARK  208  A    between atoms: _502  and  _504
REMARK  209  A    between atoms: _504  and  _505
REMARK  210  A    between atoms: _504  and  _507
REMARK  211  A    between atoms: _507  and  _508
REMARK                            x       y       z     vdW  Elec       q    Type
REMARK                         _______ _______ _______ _____ _____    ______ ____
ROOT
ATOM      1  C   GLY A   3      17.921 -18.573  19.041  0.00  0.00    +0.243 C 
ATOM      2  N   TYR A   4      18.629 -17.784  19.857  0.00  0.00    -0.297 N 
ATOM      3  H   TYR A   4      19.666 -17.861  19.887  0.00  0.00    +0.150 HD
ATOM      4  O   GLY A   3      16.674 -18.554  18.969  0.00  0.00    -0.273 OA
ENDROOT
BRANCH   1   5
ATOM      5  CA  GLY A   3      18.750 -19.535  18.220  0.00  0.00    +0.176 C 
BRANCH   5   8
ATOM      6  C   ILE A   2      17.834 -21.486  17.133  0.00  0.00    +0.241 C 
ATOM      7  O   ILE A   2      18.295 -22.261  17.993  0.00  0.00    -0.273 OA
ATOM      8  N   GLY A   3      17.989 -20.164  17.147  0.00  0.00    -0.295 N 
ATOM      9  H   GLY A   3      17.569 -19.582  16.395  0.00  0.00    +0.150 HD
BRANCH   6  10
ATOM     10  CA  ILE A   2      17.043 -22.056  15.969  0.00  0.00    +0.148 C 
BRANCH  10  12
ATOM     11  C   LYS A   1      18.384 -23.016  14.153  0.00  0.00    +0.238 C 
ATOM     12  N   ILE A   2      17.841 -23.123  15.370  0.00  0.00    -0.297 N 
ATOM     13  H   ILE A   2      17.992 -23.999  15.910  0.00  0.00    +0.150 HD
ATOM     14  O   LYS A   1      18.198 -22.022  13.400  0.00  0.00    -0.274 OA
BRANCH  11  15
ATOM     15  CA  LYS A   1      19.248 -24.185  13.660  0.00  0.00    +0.145 C 
BRANCH  15  16
ATOM     16  N   LYS A   1      18.583 -24.691  12.452  0.00  0.00    -0.238 NA
ATOM     17  H   LYS A   1      18.779 -24.236  11.538  0.00  0.00    +0.142 HD
ENDBRANCH  15  16
BRANCH  15  18
ATOM     18  CB  LYS A   1      20.638 -23.692  13.314  0.00  0.00    +0.026 C 
BRANCH  18  19
ATOM     19  CG  LYS A   1      21.433 -23.312  14.596  0.00  0.00    -0.000 C 
BRANCH  19  20
ATOM     20  CD  LYS A   1      22.873 -22.922  14.265  0.00  0.00    -0.024 C 
BRANCH  20  21
ATOM     21  CE  LYS A   1      23.052 -21.558  13.604  0.00  0.00    -0.086 C 
BRANCH  21  22
ATOM     22  NZ  LYS A   1      22.543 -20.451  14.486  0.00  0.00    +0.380 N 
ATOM     23  HZ1 LYS A   1      23.068 -20.455  15.384  0.00  0.00    -0.089 HD
ATOM     24  HZ2 LYS A   1      21.531 -20.597  14.674  0.00  0.00    -0.089 HD
ATOM     25  HZ3 LYS A   1      22.679 -19.538  14.008  0.00  0.00    -0.089 HD
ENDBRANCH  21  22
ENDBRANCH  20  21
ENDBRANCH  19  20
ENDBRANCH  18  19
ENDBRANCH  15  18
ENDBRANCH  11  15
ENDBRANCH  10  12
BRANCH  10  26
ATOM     26  CB  ILE A   2      15.671 -22.599  16.460  0.00  0.00    +0.027 C 
ATOM     27  CG2 ILE A   2      14.953 -21.536  17.268  0.00  0.00    +0.002 C 
BRANCH  26  28
ATOM     28  CG1 ILE A   2      14.860 -23.062  15.233  0.00  0.00    +0.002 C 
ATOM     29  CD1 ILE A   2      13.428 -23.541  15.578  0.00  0.00    +0.000 C 
ENDBRANCH  26  28
ENDBRANCH  10  26
ENDBRANCH   6  10
ENDBRANCH   5   8
ENDBRANCH   1   5
BRANCH   2  30
ATOM     30  CA  TYR A   4      17.946 -16.820  20.700  0.00  0.00    +0.153 C 
BRANCH  30  31
ATOM     31  C   TYR A   4      17.192 -15.696  19.967  0.00  0.00    +0.244 C 
ATOM     32  O   TYR A   4      16.209 -15.230  20.503  0.00  0.00    -0.273 OA
ATOM     33  N   PRO A   5      17.628 -15.248  18.781  0.00  0.00    -0.272 N 
ATOM     34  CA  PRO A   5      16.837 -14.174  18.128  0.00  0.00    +0.152 C 
ATOM     35  CB  PRO A   5      17.523 -14.032  16.774  0.00  0.00    +0.031 C 
ATOM     36  CG  PRO A   5      19.008 -14.268  17.103  0.00  0.00    +0.024 C 
ATOM     37  CD  PRO A   5      18.914 -15.483  18.097  0.00  0.00    +0.094 C 
BRANCH  34  38
ATOM     38  C   PRO A   5      15.363 -14.609  17.997  0.00  0.00    +0.241 C 
ATOM     39  O   PRO A   5      14.440 -13.839  18.309  0.00  0.00    -0.273 OA
ATOM     40  N   LEU A   6      15.142 -15.842  17.542  0.00  0.00    -0.298 N 
ATOM     41  H   LEU A   6      15.943 -16.462  17.307  0.00  0.00    +0.150 HD
BRANCH  40  42
ATOM     42  CA  LEU A   6      13.767 -16.322  17.374  0.00  0.00    +0.137 C 
BRANCH  42  43
ATOM     43  C   LEU A   6      13.148 -16.744  18.688  0.00  0.00    +0.227 C 
ATOM     44  O   LEU A   6      12.012 -16.374  19.002  0.00  0.00    -0.286 OA
ENDBRANCH  42  43
BRANCH  42  45
ATOM     45  CB  LEU A   6      13.717 -17.478  16.352  0.00  0.00    +0.028 C 
BRANCH  45  46
ATOM     46  CG  LEU A   6      12.300 -18.037  16.044  0.00  0.00    +0.002 C 
ATOM     47  CD2 LEU A   6      11.321 -16.915  15.583  0.00  0.00    +0.000 C 
ATOM     48  CD1 LEU A   6      12.463 -19.093  14.944  0.00  0.00    +0.000 C 
ENDBRANCH  45  46
ENDBRANCH  42  45
ENDBRANCH  40  42
ENDBRANCH  34  38
ENDBRANCH  30  31
BRANCH  30  49
ATOM     49  CB  TYR A   4      18.924 -16.298  21.763  0.00  0.00    +0.055 C 
BRANCH  49  50
ATOM     50  CG  TYR A   4      19.215 -17.347  22.847  0.00  0.00    -0.020 A 
ATOM     51  CD2 TYR A   4      18.176 -18.064  23.484  0.00  0.00    -0.001 A 
ATOM     52  CE2 TYR A   4      18.456 -18.953  24.525  0.00  0.00    +0.036 A 
ATOM     53  CZ  TYR A   4      19.752 -19.114  24.940  0.00  0.00    +0.134 A 
ATOM     54  CE1 TYR A   4      20.788 -18.434  24.342  0.00  0.00    +0.036 A 
ATOM     55  CD1 TYR A   4      20.520 -17.553  23.284  0.00  0.00    -0.001 A 
BRANCH  53  56
ATOM     56  OH  TYR A   4      19.947 -19.966  26.007  0.00  0.00    -0.506 OA
ATOM     57  HH  TYR A   4      20.912 -20.008  26.222  0.00  0.00    +0.292 HD
ENDBRANCH  53  56
ENDBRANCH  49  50
ENDBRANCH  30  49
ENDBRANCH   2  30
TORSDOF 23
REMARK  Name = ../refined-set-2016/1x1z/1x1z_pocket.pdb
REMARK  211 active torsions:
REMARK  status: ('A' for Active; 'I' for Inactive)
REMARK    1  A    between atoms: _1  and  _3
REMARK    2  A    between atoms: _3  and  _4
REMARK    3  A    between atoms: _3  and  _6
REMARK    4  A    between atoms: _6  and  _7
REMARK    5  A    between atoms: _10  and  _12
REMARK    6  A    between atoms: _12  and  _13
REMARK    7  A    between atoms: _12  and  _15
REMARK    8  A    between atoms: _15  and  _16
REMARK    9  A    between atoms: _19  and  _21
REMARK   10  A    between atoms: _21  and  _22
REMARK   11  A    between atoms: _25  and  _27
REMARK   12  A    between atoms: _27  and  _28
REMARK   13  A    between atoms: _27  and  _30
REMARK   14  A    between atoms: _30  and  _31
REMARK   15  A    between atoms: _31  and  _32
REMARK   16  A    between atoms: _34  and  _36
REMARK   17  A    between atoms: _36  and  _37
REMARK   18  A    between atoms: _36  and  _39
REMARK   19  A    between atoms: _39  and  _40
REMARK   20  A    between atoms: _43  and  _45
REMARK   21  A    between atoms: _45  and  _46
REMARK   22  A    between atoms: _45  and  _48
REMARK   23  A    between atoms: _48  and  _49
REMARK   24  A    between atoms: _49  and  _50
REMARK   25  A    between atoms: _50  and  _51
REMARK   26  A    between atoms: _51  and  _52
REMARK   27  A    between atoms: _56  and  _58
REMARK   28  A    between atoms: _58  and  _59
REMARK   29  A    between atoms: _58  and  _61
REMARK   30  A    between atoms: _61  and  _62
REMARK   31  A    between atoms: _65  and  _67
REMARK   32  A    between atoms: _67  and  _68
REMARK   33  A    between atoms: _70  and  _72
REMARK   34  A    between atoms: _72  and  _73
REMARK   35  A    between atoms: _72  and  _75
REMARK   36  A    between atoms: _75  and  _76
REMARK   37  A    between atoms: _81  and  _82
REMARK   38  A    between atoms: _85  and  _86
REMARK   39  A    between atoms: _91  and  _93
REMARK   40  A    between atoms: _93  and  _94
REMARK   41  A    between atoms: _93  and  _96
REMARK   42  A    between atoms: _96  and  _97
REMARK   43  A    between atoms: _100  and  _102
REMARK   44  A    between atoms: _102  and  _103
REMARK   45  A    between atoms: _102  and  _105
REMARK   46  A    between atoms: _105  and  _106
REMARK   47  A    between atoms: _109  and  _111
REMARK   48  A    between atoms: _111  and  _112
REMARK   49  A    between atoms: _111  and  _114
REMARK   50  A    between atoms: _114  and  _115
REMARK   51  A    between atoms: _121  and  _123
REMARK   52  A    between atoms: _123  and  _124
REMARK   53  A    between atoms: _123  and  _126
REMARK   54  A    between atoms: _126  and  _127
REMARK   55  A    between atoms: _127  and  _128
REMARK   56  A    between atoms: _128  and  _129
REMARK   57  A    between atoms: _129  and  _130
REMARK   58  A    between atoms: _134  and  _136
REMARK   59  A    between atoms: _136  and  _137
REMARK   60  A    between atoms: _136  and  _139
REMARK   61  A    between atoms: _139  and  _140
REMARK   62  A    between atoms: _143  and  _145
REMARK   63  A    between atoms: _145  and  _146
REMARK   64  A    between atoms: _145  and  _148
REMARK   65  A    between atoms: _148  and  _149
REMARK   66  A    between atoms: _154  and  _156
REMARK   67  A    between atoms: _156  and  _157
REMARK   68  A    between atoms: _156  and  _159
REMARK   69  A    between atoms: _159  and  _160
REMARK   70  A    between atoms: _163  and  _165
REMARK   71  A    between atoms: _165  and  _166
REMARK   72  A    between atoms: _165  and  _168
REMARK   73  A    between atoms: _168  and  _169
REMARK   74  A    between atoms: _172  and  _174
REMARK   75  A    between atoms: _174  and  _175
REMARK   76  A    between atoms: _174  and  _177
REMARK   77  A    between atoms: _177  and  _178
REMARK   78  A    between atoms: _178  and  _179
REMARK   79  A    between atoms: _182  and  _184
REMARK   80  A    between atoms: _184  and  _185
REMARK   81  A    between atoms: _184  and  _187
REMARK   82  A    between atoms: _187  and  _188
REMARK   83  A    between atoms: _188  and  _189
REMARK   84  A    between atoms: _191  and  _193
REMARK   85  A    between atoms: _193  and  _194
REMARK   86  A    between atoms: _193  and  _196
REMARK   87  A    between atoms: _196  and  _197
REMARK   88  A    between atoms: _199  and  _201
REMARK   89  A    between atoms: _201  and  _202
REMARK   90  A    between atoms: _201  and  _204
REMARK   91  A    between atoms: _204  and  _205
REMARK   92  A    between atoms: _210  and  _212
REMARK   93  A    between atoms: _212  and  _213
REMARK   94  A    between atoms: _216  and  _218
REMARK   95  A    between atoms: _218  and  _219
REMARK   96  A    between atoms: _218  and  _221
REMARK   97  A    between atoms: _221  and  _222
REMARK   98  A    between atoms: _225  and  _227
REMARK   99  A    between atoms: _227  and  _228
REMARK  100  A    between atoms: _227  and  _230
REMARK  101  A    between atoms: _233  and  _235
REMARK  102  A    between atoms: _235  and  _236
REMARK  103  A    between atoms: _239  and  _240
REMARK  104  A    between atoms: _245  and  _247
REMARK  105  A    between atoms: _247  and  _248
REMARK  106  A    between atoms: _247  and  _250
REMARK  107  A    between atoms: _250  and  _251
REMARK  108  A    between atoms: _253  and  _255
REMARK  109  A    between atoms: _255  and  _256
REMARK  110  A    between atoms: _255  and  _258
REMARK  111  A    between atoms: _258  and  _259
REMARK  112  A    between atoms: _262  and  _264
REMARK  113  A    between atoms: _264  and  _265
REMARK  114  A    between atoms: _264  and  _267
REMARK  115  A    between atoms: _267  and  _268
REMARK  116  A    between atoms: _268  and  _269
REMARK  117  A    between atoms: _269  and  _270
REMARK  118  A    between atoms: _279  and  _281
REMARK  119  A    between atoms: _281  and  _282
REMARK  120  A    between atoms: _281  and  _284
REMARK  121  A    between atoms: _284  and  _285
REMARK  122  A    between atoms: _288  and  _290
REMARK  123  A    between atoms: _290  and  _291
REMARK  124  A    between atoms: _290  and  _293
REMARK  125  A    between atoms: _293  and  _294
REMARK  126  A    between atoms: _297  and  _298
REMARK  127  A    between atoms: _303  and  _305
REMARK  128  A    between atoms: _305  and  _306
REMARK  129  A    between atoms: _308  and  _310
REMARK  130  A    between atoms: _310  and  _311
REMARK  131  A    between atoms: _310  and  _313
REMARK  132  A    between atoms: _316  and  _318
REMARK  133  A    between atoms: _318  and  _319
REMARK  134  A    between atoms: _321  and  _323
REMARK  135  A    between atoms: _323  and  _324
REMARK  136  A    between atoms: _327  and  _329
REMARK  137  A    between atoms: _329  and  _330
REMARK  138  A    between atoms: _329  and  _332
REMARK  139  A    between atoms: _332  and  _333
REMARK  140  A    between atoms: _333  and  _334
REMARK  141  A    between atoms: _339  and  _341
REMARK  142  A    between atoms: _341  and  _342
REMARK  143  A    between atoms: _344  and  _346
REMARK  144  A    between atoms: _346  and  _347
REMARK  145  A    between atoms: _349  and  _351
REMARK  146  A    between atoms: _351  and  _352
REMARK  147  A    between atoms: _351  and  _354
REMARK  148  A    between atoms: _354  and  _355
REMARK  149  A    between atoms: _358  and  _360
REMARK  150  A    between atoms: _360  and  _361
REMARK  151  A    between atoms: _360  and  _363
REMARK  152  A    between atoms: _366  and  _368
REMARK  153  A    between atoms: _368  and  _369
REMARK  154  A    between atoms: _371  and  _373
REMARK  155  A    between atoms: _373  and  _374
REMARK  156  A    between atoms: _373  and  _376
REMARK  157  A    between atoms: _376  and  _377
REMARK  158  A    between atoms: _377  and  _378
REMARK  159  A    between atoms: _378  and  _379
REMARK  160  A    between atoms: _388  and  _390
REMARK  161  A    between atoms: _390  and  _391
REMARK  162  A    between atoms: _390  and  _393
REMARK  163  A    between atoms: _393  and  _394
REMARK  164  A    between atoms: _396  and  _398
REMARK  165  A    between atoms: _398  and  _399
REMARK  166  A    between atoms: _398  and  _401
REMARK  167  A    between atoms: _401  and  _402
REMARK  168  A    between atoms: _405  and  _407
REMARK  169  A    between atoms: _407  and  _408
REMARK  170  A    between atoms: _407  and  _410
REMARK  171  A    between atoms: _410  and  _411
REMARK  172  A    between atoms: _416  and  _417
REMARK  173  A    between atoms: _419  and  _421
REMARK  174  A    between atoms: _421  and  _422
REMARK  175  A    between atoms: _421  and  _424
REMARK  176  A    between atoms: _424  and  _425
REMARK  177  A    between atoms: _428  and  _430
REMARK  178  A    between atoms: _430  and  _431
REMARK  179  A    between atoms: _434  and  _436
REMARK  180  A    between atoms: _436  and  _437
REMARK  181  A    between atoms: _436  and  _439
REMARK  182  A    between atoms: _439  and  _440
REMARK  183  A    between atoms: _443  and  _445
REMARK  184  A    between atoms: _445  and  _446
REMARK  185  A    between atoms: _445  and  _448
REMARK  186  A    between atoms: _448  and  _449
REMARK  187  A    between atoms: _453  and  _454
REMARK  188  A    between atoms: _459  and  _461
REMARK  189  A    between atoms: _461  and  _462
REMARK  190  A    between atoms: _461  and  _464
REMARK  191  A    between atoms: _464  and  _465
REMARK  192  A    between atoms: _465  and  _466
REMARK  193  A    between atoms: _469  and  _471
REMARK  194  A    between atoms: _471  and  _472
REMARK  195  A    between atoms: _471  and  _474
REMARK  196  A    between atoms: _474  and  _475
REMARK  197  A    between atoms: _478  and  _480
REMARK  198  A    between atoms: _480  and  _481
REMARK  199  A    between atoms: _480  and  _483
REMARK  200  A    between atoms: _483  and  _484
REMARK  201  A    between atoms: _489  and  _491
REMARK  202  A    between atoms: _491  and  _492
REMARK  203  A    between atoms: _491  and  _494
REMARK  204  A    between atoms: _494  and  _495
REMARK  205  A    between atoms: _495  and  _496
REMARK  206  A    between atoms: _496  and  _497
REMARK  207  A    between atoms: _497  and  _498
REMARK  208  A    between atoms: _502  and  _504
REMARK  209  A    between atoms: _504  and  _505
REMARK  210  A    between atoms: _504  and  _507
REMARK  211  A    between atoms: _507  and  _508
REMARK                            x       y       z     vdW  Elec       q    Type
REMARK                         _______ _______ _______ _____ _____    ______ ____
ROOT
ATOM      1  CA  PHE A   2      22.111 -21.295  22.624  0.00  0.00    +0.153 C 
ENDROOT
BRANCH   1   3
ATOM      2  C   ASP A   1      21.925 -21.629  20.222  0.00  0.00    +0.239 C 
ATOM      3  N   PHE A   2      22.182 -22.129  21.434  0.00  0.00    -0.297 N 
ATOM      4  H   PHE A   2      22.437 -23.133  21.529  0.00  0.00    +0.150 HD
ATOM      5  O   ASP A   1      21.714 -20.441  20.024  0.00  0.00    -0.274 OA
BRANCH   2   6
ATOM      6  CA  ASP A   1      21.948 -22.618  19.111  0.00  0.00    +0.156 C 
BRANCH   6   7
ATOM      7  N   ASP A   1      20.669 -23.320  19.064  0.00  0.00    -0.238 NA
ATOM      8  H   ASP A   1      19.894 -22.943  18.482  0.00  0.00    +0.142 HD
ENDBRANCH   6   7
BRANCH   6   9
ATOM      9  CB  ASP A   1      22.214 -21.940  17.784  0.00  0.00    +0.140 C 
BRANCH   9  10
ATOM     10  CG  ASP A   1      23.541 -21.238  17.770  0.00  0.00    +0.367 C 
ATOM     11  OD2 ASP A   1      24.334 -21.426  18.731  0.00  0.00    -0.246 OA
ATOM     12  OD1 ASP A   1      23.818 -20.507  16.801  0.00  0.00    -0.246 OA
ENDBRANCH   9  10
ENDBRANCH   6   9
ENDBRANCH   2   6
ENDBRANCH   1   3
BRANCH   1  13
ATOM     13  C   PHE A   2      23.479 -20.915  23.200  0.00  0.00    +0.241 C 
ATOM     14  O   PHE A   2      23.569 -20.221  24.201  0.00  0.00    -0.273 OA
ATOM     15  N   LYS A   3      24.540 -21.349  22.526  0.00  0.00    -0.298 N 
ATOM     16  H   LYS A   3      24.388 -21.960  21.698  0.00  0.00    +0.150 HD
BRANCH  15  17
ATOM     17  CA  LYS A   3      25.934 -20.999  22.904  0.00  0.00    +0.137 C 
BRANCH  17  18
ATOM     18  C   LYS A   3      26.070 -21.026  24.412  0.00  0.00    +0.227 C 
ATOM     19  O   LYS A   3      26.577 -20.102  25.048  0.00  0.00    -0.286 OA
ENDBRANCH  17  18
BRANCH  17  20
ATOM     20  CB  LYS A   3      26.294 -19.623  22.329  0.00  0.00    +0.028 C 
BRANCH  20  21
ATOM     21  CG  LYS A   3      26.533 -19.818  20.786  0.00  0.00    -0.000 C 
BRANCH  21  22
ATOM     22  CD  LYS A   3      27.145 -18.669  20.103  0.00  0.00    -0.024 C 
BRANCH  22  23
ATOM     23  CE  LYS A   3      27.208 -18.958  18.654  0.00  0.00    -0.086 C 
BRANCH  23  24
ATOM     24  NZ  LYS A   3      25.855 -19.151  18.048  0.00  0.00    +0.380 N 
ATOM     25  HZ1 LYS A   3      25.379 -19.950  18.514  0.00  0.00    -0.089 HD
ATOM     26  HZ2 LYS A   3      25.292 -18.286  18.178  0.00  0.00    -0.089 HD
ATOM     27  HZ3 LYS A   3      25.957 -19.351  17.032  0.00  0.00    -0.089 HD
ENDBRANCH  23  24
ENDBRANCH  22  23
ENDBRANCH  21  22
ENDBRANCH  20  21
ENDBRANCH  17  20
ENDBRANCH  15  17
ENDBRANCH   1  13
BRANCH   1  28
ATOM     28  CB  PHE A   2      21.223 -21.996  23.665  0.00  0.00    +0.055 C 
BRANCH  28  29
ATOM     29  CG  PHE A   2      19.759 -22.087  23.300  0.00  0.00    -0.020 A 
ATOM     30  CD2 PHE A   2      18.889 -22.787  24.127  0.00  0.00    -0.004 A 
ATOM     31  CE2 PHE A   2      17.513 -22.848  23.856  0.00  0.00    -0.000 A 
ATOM     32  CZ  PHE A   2      16.982 -22.207  22.753  0.00  0.00    -0.000 A 
ATOM     33  CE1 PHE A   2      17.850 -21.487  21.898  0.00  0.00    -0.000 A 
ATOM     34  CD1 PHE A   2      19.236 -21.437  22.188  0.00  0.00    -0.004 A 
ENDBRANCH  28  29
ENDBRANCH   1  28
TORSDOF 15
REMARK  Name = ../refined-set-2016/1x1z/1x1z_pocket.pdb
REMARK  211 active torsions:
REMARK  status: ('A' for Active; 'I' for Inactive)
REMARK    1  A    between atoms: _1  and  _3
REMARK    2  A    between atoms: _3  and  _4
REMARK    3  A    between atoms: _3  and  _6
REMARK    4  A    between atoms: _6  and  _7
REMARK    5  A    between atoms: _10  and  _12
REMARK    6  A    between atoms: _12  and  _13
REMARK    7  A    between atoms: _12  and  _15
REMARK    8  A    between atoms: _15  and  _16
REMARK    9  A    between atoms: _19  and  _21
REMARK   10  A    between atoms: _21  and  _22
REMARK   11  A    between atoms: _25  and  _27
REMARK   12  A    between atoms: _27  and  _28
REMARK   13  A    between atoms: _27  and  _30
REMARK   14  A    between atoms: _30  and  _31
REMARK   15  A    between atoms: _31  and  _32
REMARK   16  A    between atoms: _34  and  _36
REMARK   17  A    between atoms: _36  and  _37
REMARK   18  A    between atoms: _36  and  _39
REMARK   19  A    between atoms: _39  and  _40
REMARK   20  A    between atoms: _43  and  _45
REMARK   21  A    between atoms: _45  and  _46
REMARK   22  A    between atoms: _45  and  _48
REMARK   23  A    between atoms: _48  and  _49
REMARK   24  A    between atoms: _49  and  _50
REMARK   25  A    between atoms: _50  and  _51
REMARK   26  A    between atoms: _51  and  _52
REMARK   27  A    between atoms: _56  and  _58
REMARK   28  A    between atoms: _58  and  _59
REMARK   29  A    between atoms: _58  and  _61
REMARK   30  A    between atoms: _61  and  _62
REMARK   31  A    between atoms: _65  and  _67
REMARK   32  A    between atoms: _67  and  _68
REMARK   33  A    between atoms: _70  and  _72
REMARK   34  A    between atoms: _72  and  _73
REMARK   35  A    between atoms: _72  and  _75
REMARK   36  A    between atoms: _75  and  _76
REMARK   37  A    between atoms: _81  and  _82
REMARK   38  A    between atoms: _85  and  _86
REMARK   39  A    between atoms: _91  and  _93
REMARK   40  A    between atoms: _93  and  _94
REMARK   41  A    between atoms: _93  and  _96
REMARK   42  A    between atoms: _96  and  _97
REMARK   43  A    between atoms: _100  and  _102
REMARK   44  A    between atoms: _102  and  _103
REMARK   45  A    between atoms: _102  and  _105
REMARK   46  A    between atoms: _105  and  _106
REMARK   47  A    between atoms: _109  and  _111
REMARK   48  A    between atoms: _111  and  _112
REMARK   49  A    between atoms: _111  and  _114
REMARK   50  A    between atoms: _114  and  _115
REMARK   51  A    between atoms: _121  and  _123
REMARK   52  A    between atoms: _123  and  _124
REMARK   53  A    between atoms: _123  and  _126
REMARK   54  A    between atoms: _126  and  _127
REMARK   55  A    between atoms: _127  and  _128
REMARK   56  A    between atoms: _128  and  _129
REMARK   57  A    between atoms: _129  and  _130
REMARK   58  A    between atoms: _134  and  _136
REMARK   59  A    between atoms: _136  and  _137
REMARK   60  A    between atoms: _136  and  _139
REMARK   61  A    between atoms: _139  and  _140
REMARK   62  A    between atoms: _143  and  _145
REMARK   63  A    between atoms: _145  and  _146
REMARK   64  A    between atoms: _145  and  _148
REMARK   65  A    between atoms: _148  and  _149
REMARK   66  A    between atoms: _154  and  _156
REMARK   67  A    between atoms: _156  and  _157
REMARK   68  A    between atoms: _156  and  _159
REMARK   69  A    between atoms: _159  and  _160
REMARK   70  A    between atoms: _163  and  _165
REMARK   71  A    between atoms: _165  and  _166
REMARK   72  A    between atoms: _165  and  _168
REMARK   73  A    between atoms: _168  and  _169
REMARK   74  A    between atoms: _172  and  _174
REMARK   75  A    between atoms: _174  and  _175
REMARK   76  A    between atoms: _174  and  _177
REMARK   77  A    between atoms: _177  and  _178
REMARK   78  A    between atoms: _178  and  _179
REMARK   79  A    between atoms: _182  and  _184
REMARK   80  A    between atoms: _184  and  _185
REMARK   81  A    between atoms: _184  and  _187
REMARK   82  A    between atoms: _187  and  _188
REMARK   83  A    between atoms: _188  and  _189
REMARK   84  A    between atoms: _191  and  _193
REMARK   85  A    between atoms: _193  and  _194
REMARK   86  A    between atoms: _193  and  _196
REMARK   87  A    between atoms: _196  and  _197
REMARK   88  A    between atoms: _199  and  _201
REMARK   89  A    between atoms: _201  and  _202
REMARK   90  A    between atoms: _201  and  _204
REMARK   91  A    between atoms: _204  and  _205
REMARK   92  A    between atoms: _210  and  _212
REMARK   93  A    between atoms: _212  and  _213
REMARK   94  A    between atoms: _216  and  _218
REMARK   95  A    between atoms: _218  and  _219
REMARK   96  A    between atoms: _218  and  _221
REMARK   97  A    between atoms: _221  and  _222
REMARK   98  A    between atoms: _225  and  _227
REMARK   99  A    between atoms: _227  and  _228
REMARK  100  A    between atoms: _227  and  _230
REMARK  101  A    between atoms: _233  and  _235
REMARK  102  A    between atoms: _235  and  _236
REMARK  103  A    between atoms: _239  and  _240
REMARK  104  A    between atoms: _245  and  _247
REMARK  105  A    between atoms: _247  and  _248
REMARK  106  A    between atoms: _247  and  _250
REMARK  107  A    between atoms: _250  and  _251
REMARK  108  A    between atoms: _253  and  _255
REMARK  109  A    between atoms: _255  and  _256
REMARK  110  A    between atoms: _255  and  _258
REMARK  111  A    between atoms: _258  and  _259
REMARK  112  A    between atoms: _262  and  _264
REMARK  113  A    between atoms: _264  and  _265
REMARK  114  A    between atoms: _264  and  _267
REMARK  115  A    between atoms: _267  and  _268
REMARK  116  A    between atoms: _268  and  _269
REMARK  117  A    between atoms: _269  and  _270
REMARK  118  A    between atoms: _279  and  _281
REMARK  119  A    between atoms: _281  and  _282
REMARK  120  A    between atoms: _281  and  _284
REMARK  121  A    between atoms: _284  and  _285
REMARK  122  A    between atoms: _288  and  _290
REMARK  123  A    between atoms: _290  and  _291
REMARK  124  A    between atoms: _290  and  _293
REMARK  125  A    between atoms: _293  and  _294
REMARK  126  A    between atoms: _297  and  _298
REMARK  127  A    between atoms: _303  and  _305
REMARK  128  A    between atoms: _305  and  _306
REMARK  129  A    between atoms: _308  and  _310
REMARK  130  A    between atoms: _310  and  _311
REMARK  131  A    between atoms: _310  and  _313
REMARK  132  A    between atoms: _316  and  _318
REMARK  133  A    between atoms: _318  and  _319
REMARK  134  A    between atoms: _321  and  _323
REMARK  135  A    between atoms: _323  and  _324
REMARK  136  A    between atoms: _327  and  _329
REMARK  137  A    between atoms: _329  and  _330
REMARK  138  A    between atoms: _329  and  _332
REMARK  139  A    between atoms: _332  and  _333
REMARK  140  A    between atoms: _333  and  _334
REMARK  141  A    between atoms: _339  and  _341
REMARK  142  A    between atoms: _341  and  _342
REMARK  143  A    between atoms: _344  and  _346
REMARK  144  A    between atoms: _346  and  _347
REMARK  145  A    between atoms: _349  and  _351
REMARK  146  A    between atoms: _351  and  _352
REMARK  147  A    between atoms: _351  and  _354
REMARK  148  A    between atoms: _354  and  _355
REMARK  149  A    between atoms: _358  and  _360
REMARK  150  A    between atoms: _360  and  _361
REMARK  151  A    between atoms: _360  and  _363
REMARK  152  A    between atoms: _366  and  _368
REMARK  153  A    between atoms: _368  and  _369
REMARK  154  A    between atoms: _371  and  _373
REMARK  155  A    between atoms: _373  and  _374
REMARK  156  A    between atoms: _373  and  _376
REMARK  157  A    between atoms: _376  and  _377
REMARK  158  A    between atoms: _377  and  _378
REMARK  159  A    between atoms: _378  and  _379
REMARK  160  A    between atoms: _388  and  _390
REMARK  161  A    between atoms: _390  and  _391
REMARK  162  A    between atoms: _390  and  _393
REMARK  163  A    between atoms: _393  and  _394
REMARK  164  A    between atoms: _396  and  _398
REMARK  165  A    between atoms: _398  and  _399
REMARK  166  A    between atoms: _398  and  _401
REMARK  167  A    between atoms: _401  and  _402
REMARK  168  A    between atoms: _405  and  _407
REMARK  169  A    between atoms: _407  and  _408
REMARK  170  A    between atoms: _407  and  _410
REMARK  171  A    between atoms: _410  and  _411
REMARK  172  A    between atoms: _416  and  _417
REMARK  173  A    between atoms: _419  and  _421
REMARK  174  A    between atoms: _421  and  _422
REMARK  175  A    between atoms: _421  and  _424
REMARK  176  A    between atoms: _424  and  _425
REMARK  177  A    between atoms: _428  and  _430
REMARK  178  A    between atoms: _430  and  _431
REMARK  179  A    between atoms: _434  and  _436
REMARK  180  A    between atoms: _436  and  _437
REMARK  181  A    between atoms: _436  and  _439
REMARK  182  A    between atoms: _439  and  _440
REMARK  183  A    between atoms: _443  and  _445
REMARK  184  A    between atoms: _445  and  _446
REMARK  185  A    between atoms: _445  and  _448
REMARK  186  A    between atoms: _448  and  _449
REMARK  187  A    between atoms: _453  and  _454
REMARK  188  A    between atoms: _459  and  _461
REMARK  189  A    between atoms: _461  and  _462
REMARK  190  A    between atoms: _461  and  _464
REMARK  191  A    between atoms: _464  and  _465
REMARK  192  A    between atoms: _465  and  _466
REMARK  193  A    between atoms: _469  and  _471
REMARK  194  A    between atoms: _471  and  _472
REMARK  195  A    between atoms: _471  and  _474
REMARK  196  A    between atoms: _474  and  _475
REMARK  197  A    between atoms: _478  and  _480
REMARK  198  A    between atoms: _480  and  _481
REMARK  199  A    between atoms: _480  and  _483
REMARK  200  A    between atoms: _483  and  _484
REMARK  201  A    between atoms: _489  and  _491
REMARK  202  A    between atoms: _491  and  _492
REMARK  203  A    between atoms: _491  and  _494
REMARK  204  A    between atoms: _494  and  _495
REMARK  205  A    between atoms: _495  and  _496
REMARK  206  A    between atoms: _496  and  _497
REMARK  207  A    between atoms: _497  and  _498
REMARK  208  A    between atoms: _502  and  _504
REMARK  209  A    between atoms: _504  and  _505
REMARK  210  A    between atoms: _504  and  _507
REMARK  211  A    between atoms: _507  and  _508
REMARK                            x       y       z     vdW  Elec       q    Type
REMARK                         _______ _______ _______ _____ _____    ______ ____
ROOT
ATOM      1  CA  ILE A   1      25.316 -25.872  20.913  0.00  0.00    +0.133 C 
ENDROOT
BRANCH   1   2
ATOM      2  N   ILE A   1      23.942 -26.326  21.123  0.00  0.00    -0.239 NA
ATOM      3  H   ILE A   1      23.161 -25.651  20.992  0.00  0.00    +0.142 HD
ENDBRANCH   1   2
BRANCH   1   4
ATOM      4  C   ILE A   1      25.843 -25.233  22.194  0.00  0.00    +0.224 C 
ATOM      5  O   ILE A   1      25.219 -24.335  22.776  0.00  0.00    -0.287 OA
ENDBRANCH   1   4
BRANCH   1   6
ATOM      6  CB  ILE A   1      25.399 -24.865  19.770  0.00  0.00    +0.023 C 
ATOM      7  CG2 ILE A   1      26.870 -24.364  19.627  0.00  0.00    +0.002 C 
BRANCH   6   8
ATOM      8  CG1 ILE A   1      24.994 -25.575  18.467  0.00  0.00    +0.002 C 
ATOM      9  CD1 ILE A   1      24.885 -24.655  17.199  0.00  0.00    +0.000 C 
ENDBRANCH   6   8
ENDBRANCH   1   6
TORSDOF 4
REMARK  Name = ../refined-set-2016/1x1z/1x1z_pocket.pdb
REMARK  211 active torsions:
REMARK  status: ('A' for Active; 'I' for Inactive)
REMARK    1  A    between atoms: _1  and  _3
REMARK    2  A    between atoms: _3  and  _4
REMARK    3  A    between atoms: _3  and  _6
REMARK    4  A    between atoms: _6  and  _7
REMARK    5  A    between atoms: _10  and  _12
REMARK    6  A    between atoms: _12  and  _13
REMARK    7  A    between atoms: _12  and  _15
REMARK    8  A    between atoms: _15  and  _16
REMARK    9  A    between atoms: _19  and  _21
REMARK   10  A    between atoms: _21  and  _22
REMARK   11  A    between atoms: _25  and  _27
REMARK   12  A    between atoms: _27  and  _28
REMARK   13  A    between atoms: _27  and  _30
REMARK   14  A    between atoms: _30  and  _31
REMARK   15  A    between atoms: _31  and  _32
REMARK   16  A    between atoms: _34  and  _36
REMARK   17  A    between atoms: _36  and  _37
REMARK   18  A    between atoms: _36  and  _39
REMARK   19  A    between atoms: _39  and  _40
REMARK   20  A    between atoms: _43  and  _45
REMARK   21  A    between atoms: _45  and  _46
REMARK   22  A    between atoms: _45  and  _48
REMARK   23  A    between atoms: _48  and  _49
REMARK   24  A    between atoms: _49  and  _50
REMARK   25  A    between atoms: _50  and  _51
REMARK   26  A    between atoms: _51  and  _52
REMARK   27  A    between atoms: _56  and  _58
REMARK   28  A    between atoms: _58  and  _59
REMARK   29  A    between atoms: _58  and  _61
REMARK   30  A    between atoms: _61  and  _62
REMARK   31  A    between atoms: _65  and  _67
REMARK   32  A    between atoms: _67  and  _68
REMARK   33  A    between atoms: _70  and  _72
REMARK   34  A    between atoms: _72  and  _73
REMARK   35  A    between atoms: _72  and  _75
REMARK   36  A    between atoms: _75  and  _76
REMARK   37  A    between atoms: _81  and  _82
REMARK   38  A    between atoms: _85  and  _86
REMARK   39  A    between atoms: _91  and  _93
REMARK   40  A    between atoms: _93  and  _94
REMARK   41  A    between atoms: _93  and  _96
REMARK   42  A    between atoms: _96  and  _97
REMARK   43  A    between atoms: _100  and  _102
REMARK   44  A    between atoms: _102  and  _103
REMARK   45  A    between atoms: _102  and  _105
REMARK   46  A    between atoms: _105  and  _106
REMARK   47  A    between atoms: _109  and  _111
REMARK   48  A    between atoms: _111  and  _112
REMARK   49  A    between atoms: _111  and  _114
REMARK   50  A    between atoms: _114  and  _115
REMARK   51  A    between atoms: _121  and  _123
REMARK   52  A    between atoms: _123  and  _124
REMARK   53  A    between atoms: _123  and  _126
REMARK   54  A    between atoms: _126  and  _127
REMARK   55  A    between atoms: _127  and  _128
REMARK   56  A    between atoms: _128  and  _129
REMARK   57  A    between atoms: _129  and  _130
REMARK   58  A    between atoms: _134  and  _136
REMARK   59  A    between atoms: _136  and  _137
REMARK   60  A    between atoms: _136  and  _139
REMARK   61  A    between atoms: _139  and  _140
REMARK   62  A    between atoms: _143  and  _145
REMARK   63  A    between atoms: _145  and  _146
REMARK   64  A    between atoms: _145  and  _148
REMARK   65  A    between atoms: _148  and  _149
REMARK   66  A    between atoms: _154  and  _156
REMARK   67  A    between atoms: _156  and  _157
REMARK   68  A    between atoms: _156  and  _159
REMARK   69  A    between atoms: _159  and  _160
REMARK   70  A    between atoms: _163  and  _165
REMARK   71  A    between atoms: _165  and  _166
REMARK   72  A    between atoms: _165  and  _168
REMARK   73  A    between atoms: _168  and  _169
REMARK   74  A    between atoms: _172  and  _174
REMARK   75  A    between atoms: _174  and  _175
REMARK   76  A    between atoms: _174  and  _177
REMARK   77  A    between atoms: _177  and  _178
REMARK   78  A    between atoms: _178  and  _179
REMARK   79  A    between atoms: _182  and  _184
REMARK   80  A    between atoms: _184  and  _185
REMARK   81  A    between atoms: _184  and  _187
REMARK   82  A    between atoms: _187  and  _188
REMARK   83  A    between atoms: _188  and  _189
REMARK   84  A    between atoms: _191  and  _193
REMARK   85  A    between atoms: _193  and  _194
REMARK   86  A    between atoms: _193  and  _196
REMARK   87  A    between atoms: _196  and  _197
REMARK   88  A    between atoms: _199  and  _201
REMARK   89  A    between atoms: _201  and  _202
REMARK   90  A    between atoms: _201  and  _204
REMARK   91  A    between atoms: _204  and  _205
REMARK   92  A    between atoms: _210  and  _212
REMARK   93  A    between atoms: _212  and  _213
REMARK   94  A    between atoms: _216  and  _218
REMARK   95  A    between atoms: _218  and  _219
REMARK   96  A    between atoms: _218  and  _221
REMARK   97  A    between atoms: _221  and  _222
REMARK   98  A    between atoms: _225  and  _227
REMARK   99  A    between atoms: _227  and  _228
REMARK  100  A    between atoms: _227  and  _230
REMARK  101  A    between atoms: _233  and  _235
REMARK  102  A    between atoms: _235  and  _236
REMARK  103  A    between atoms: _239  and  _240
REMARK  104  A    between atoms: _245  and  _247
REMARK  105  A    between atoms: _247  and  _248
REMARK  106  A    between atoms: _247  and  _250
REMARK  107  A    between atoms: _250  and  _251
REMARK  108  A    between atoms: _253  and  _255
REMARK  109  A    between atoms: _255  and  _256
REMARK  110  A    between atoms: _255  and  _258
REMARK  111  A    between atoms: _258  and  _259
REMARK  112  A    between atoms: _262  and  _264
REMARK  113  A    between atoms: _264  and  _265
REMARK  114  A    between atoms: _264  and  _267
REMARK  115  A    between atoms: _267  and  _268
REMARK  116  A    between atoms: _268  and  _269
REMARK  117  A    between atoms: _269  and  _270
REMARK  118  A    between atoms: _279  and  _281
REMARK  119  A    between atoms: _281  and  _282
REMARK  120  A    between atoms: _281  and  _284
REMARK  121  A    between atoms: _284  and  _285
REMARK  122  A    between atoms: _288  and  _290
REMARK  123  A    between atoms: _290  and  _291
REMARK  124  A    between atoms: _290  and  _293
REMARK  125  A    between atoms: _293  and  _294
REMARK  126  A    between atoms: _297  and  _298
REMARK  127  A    between atoms: _303  and  _305
REMARK  128  A    between atoms: _305  and  _306
REMARK  129  A    between atoms: _308  and  _310
REMARK  130  A    between atoms: _310  and  _311
REMARK  131  A    between atoms: _310  and  _313
REMARK  132  A    between atoms: _316  and  _318
REMARK  133  A    between atoms: _318  and  _319
REMARK  134  A    between atoms: _321  and  _323
REMARK  135  A    between atoms: _323  and  _324
REMARK  136  A    between atoms: _327  and  _329
REMARK  137  A    between atoms: _329  and  _330
REMARK  138  A    between atoms: _329  and  _332
REMARK  139  A    between atoms: _332  and  _333
REMARK  140  A    between atoms: _333  and  _334
REMARK  141  A    between atoms: _339  and  _341
REMARK  142  A    between atoms: _341  and  _342
REMARK  143  A    between atoms: _344  and  _346
REMARK  144  A    between atoms: _346  and  _347
REMARK  145  A    between atoms: _349  and  _351
REMARK  146  A    between atoms: _351  and  _352
REMARK  147  A    between atoms: _351  and  _354
REMARK  148  A    between atoms: _354  and  _355
REMARK  149  A    between atoms: _358  and  _360
REMARK  150  A    between atoms: _360  and  _361
REMARK  151  A    between atoms: _360  and  _363
REMARK  152  A    between atoms: _366  and  _368
REMARK  153  A    between atoms: _368  and  _369
REMARK  154  A    between atoms: _371  and  _373
REMARK  155  A    between atoms: _373  and  _374
REMARK  156  A    between atoms: _373  and  _376
REMARK  157  A    between atoms: _376  and  _377
REMARK  158  A    between atoms: _377  and  _378
REMARK  159  A    between atoms: _378  and  _379
REMARK  160  A    between atoms: _388  and  _390
REMARK  161  A    between atoms: _390  and  _391
REMARK  162  A    between atoms: _390  and  _393
REMARK  163  A    between atoms: _393  and  _394
REMARK  164  A    between atoms: _396  and  _398
REMARK  165  A    between atoms: _398  and  _399
REMARK  166  A    between atoms: _398  and  _401
REMARK  167  A    between atoms: _401  and  _402
REMARK  168  A    between atoms: _405  and  _407
REMARK  169  A    between atoms: _407  and  _408
REMARK  170  A    between atoms: _407  and  _410
REMARK  171  A    between atoms: _410  and  _411
REMARK  172  A    between atoms: _416  and  _417
REMARK  173  A    between atoms: _419  and  _421
REMARK  174  A    between atoms: _421  and  _422
REMARK  175  A    between atoms: _421  and  _424
REMARK  176  A    between atoms: _424  and  _425
REMARK  177  A    between atoms: _428  and  _430
REMARK  178  A    between atoms: _430  and  _431
REMARK  179  A    between atoms: _434  and  _436
REMARK  180  A    between atoms: _436  and  _437
REMARK  181  A    between atoms: _436  and  _439
REMARK  182  A    between atoms: _439  and  _440
REMARK  183  A    between atoms: _443  and  _445
REMARK  184  A    between atoms: _445  and  _446
REMARK  185  A    between atoms: _445  and  _448
REMARK  186  A    between atoms: _448  and  _449
REMARK  187  A    between atoms: _453  and  _454
REMARK  188  A    between atoms: _459  and  _461
REMARK  189  A    between atoms: _461  and  _462
REMARK  190  A    between atoms: _461  and  _464
REMARK  191  A    between atoms: _464  and  _465
REMARK  192  A    between atoms: _465  and  _466
REMARK  193  A    between atoms: _469  and  _471
REMARK  194  A    between atoms: _471  and  _472
REMARK  195  A    between atoms: _471  and  _474
REMARK  196  A    between atoms: _474  and  _475
REMARK  197  A    between atoms: _478  and  _480
REMARK  198  A    between atoms: _480  and  _481
REMARK  199  A    between atoms: _480  and  _483
REMARK  200  A    between atoms: _483  and  _484
REMARK  201  A    between atoms: _489  and  _491
REMARK  202  A    between atoms: _491  and  _492
REMARK  203  A    between atoms: _491  and  _494
REMARK  204  A    between atoms: _494  and  _495
REMARK  205  A    between atoms: _495  and  _496
REMARK  206  A    between atoms: _496  and  _497
REMARK  207  A    between atoms: _497  and  _498
REMARK  208  A    between atoms: _502  and  _504
REMARK  209  A    between atoms: _504  and  _505
REMARK  210  A    between atoms: _504  and  _507
REMARK  211  A    between atoms: _507  and  _508
REMARK                            x       y       z     vdW  Elec       q    Type
REMARK                         _______ _______ _______ _____ _____    ______ ____
ROOT
ATOM      1  CB  HIS A   1      30.759 -21.608  24.759  0.00  0.00    +0.072 C 
ENDROOT
BRANCH   1   2
ATOM      2  CG  HIS A   1      30.650 -20.504  23.765  0.00  0.00    +0.082 A 
ATOM      3  CD2 HIS A   1      29.725 -19.517  23.621  0.00  0.00    +0.115 A 
ATOM      4  NE2 HIS A   1      30.151 -18.716  22.585  0.00  0.00    -0.221 NA
ATOM      5  CE1 HIS A   1      31.297 -19.207  22.113  0.00  0.00    +0.199 A 
ATOM      6  ND1 HIS A   1      31.612 -20.290  22.807  0.00  0.00    -0.227 NA
ENDBRANCH   1   2
BRANCH   1   7
ATOM      7  CA  HIS A   1      30.694 -23.004  24.140  0.00  0.00    +0.139 C 
BRANCH   7   8
ATOM      8  N   HIS A   1      29.356 -23.582  24.272  0.00  0.00    -0.239 NA
ATOM      9  H   HIS A   1      28.650 -23.135  24.892  0.00  0.00    +0.142 HD
ENDBRANCH   7   8
BRANCH   7  10
ATOM     10  C   HIS A   1      31.673 -23.868  24.918  0.00  0.00    +0.224 C 
ATOM     11  O   HIS A   1      31.380 -24.338  26.015  0.00  0.00    -0.287 OA
ENDBRANCH   7  10
ENDBRANCH   1   7
TORSDOF 4
REMARK  Name = ../refined-set-2016/1x1z/1x1z_pocket.pdb
REMARK  211 active torsions:
REMARK  status: ('A' for Active; 'I' for Inactive)
REMARK    1  A    between atoms: _1  and  _3
REMARK    2  A    between atoms: _3  and  _4
REMARK    3  A    between atoms: _3  and  _6
REMARK    4  A    between atoms: _6  and  _7
REMARK    5  A    between atoms: _10  and  _12
REMARK    6  A    between atoms: _12  and  _13
REMARK    7  A    between atoms: _12  and  _15
REMARK    8  A    between atoms: _15  and  _16
REMARK    9  A    between atoms: _19  and  _21
REMARK   10  A    between atoms: _21  and  _22
REMARK   11  A    between atoms: _25  and  _27
REMARK   12  A    between atoms: _27  and  _28
REMARK   13  A    between atoms: _27  and  _30
REMARK   14  A    between atoms: _30  and  _31
REMARK   15  A    between atoms: _31  and  _32
REMARK   16  A    between atoms: _34  and  _36
REMARK   17  A    between atoms: _36  and  _37
REMARK   18  A    between atoms: _36  and  _39
REMARK   19  A    between atoms: _39  and  _40
REMARK   20  A    between atoms: _43  and  _45
REMARK   21  A    between atoms: _45  and  _46
REMARK   22  A    between atoms: _45  and  _48
REMARK   23  A    between atoms: _48  and  _49
REMARK   24  A    between atoms: _49  and  _50
REMARK   25  A    between atoms: _50  and  _51
REMARK   26  A    between atoms: _51  and  _52
REMARK   27  A    between atoms: _56  and  _58
REMARK   28  A    between atoms: _58  and  _59
REMARK   29  A    between atoms: _58  and  _61
REMARK   30  A    between atoms: _61  and  _62
REMARK   31  A    between atoms: _65  and  _67
REMARK   32  A    between atoms: _67  and  _68
REMARK   33  A    between atoms: _70  and  _72
REMARK   34  A    between atoms: _72  and  _73
REMARK   35  A    between atoms: _72  and  _75
REMARK   36  A    between atoms: _75  and  _76
REMARK   37  A    between atoms: _81  and  _82
REMARK   38  A    between atoms: _85  and  _86
REMARK   39  A    between atoms: _91  and  _93
REMARK   40  A    between atoms: _93  and  _94
REMARK   41  A    between atoms: _93  and  _96
REMARK   42  A    between atoms: _96  and  _97
REMARK   43  A    between atoms: _100  and  _102
REMARK   44  A    between atoms: _102  and  _103
REMARK   45  A    between atoms: _102  and  _105
REMARK   46  A    between atoms: _105  and  _106
REMARK   47  A    between atoms: _109  and  _111
REMARK   48  A    between atoms: _111  and  _112
REMARK   49  A    between atoms: _111  and  _114
REMARK   50  A    between atoms: _114  and  _115
REMARK   51  A    between atoms: _121  and  _123
REMARK   52  A    between atoms: _123  and  _124
REMARK   53  A    between atoms: _123  and  _126
REMARK   54  A    between atoms: _126  and  _127
REMARK   55  A    between atoms: _127  and  _128
REMARK   56  A    between atoms: _128  and  _129
REMARK   57  A    between atoms: _129  and  _130
REMARK   58  A    between atoms: _134  and  _136
REMARK   59  A    between atoms: _136  and  _137
REMARK   60  A    between atoms: _136  and  _139
REMARK   61  A    between atoms: _139  and  _140
REMARK   62  A    between atoms: _143  and  _145
REMARK   63  A    between atoms: _145  and  _146
REMARK   64  A    between atoms: _145  and  _148
REMARK   65  A    between atoms: _148  and  _149
REMARK   66  A    between atoms: _154  and  _156
REMARK   67  A    between atoms: _156  and  _157
REMARK   68  A    between atoms: _156  and  _159
REMARK   69  A    between atoms: _159  and  _160
REMARK   70  A    between atoms: _163  and  _165
REMARK   71  A    between atoms: _165  and  _166
REMARK   72  A    between atoms: _165  and  _168
REMARK   73  A    between atoms: _168  and  _169
REMARK   74  A    between atoms: _172  and  _174
REMARK   75  A    between atoms: _174  and  _175
REMARK   76  A    between atoms: _174  and  _177
REMARK   77  A    between atoms: _177  and  _178
REMARK   78  A    between atoms: _178  and  _179
REMARK   79  A    between atoms: _182  and  _184
REMARK   80  A    between atoms: _184  and  _185
REMARK   81  A    between atoms: _184  and  _187
REMARK   82  A    between atoms: _187  and  _188
REMARK   83  A    between atoms: _188  and  _189
REMARK   84  A    between atoms: _191  and  _193
REMARK   85  A    between atoms: _193  and  _194
REMARK   86  A    between atoms: _193  and  _196
REMARK   87  A    between atoms: _196  and  _197
REMARK   88  A    between atoms: _199  and  _201
REMARK   89  A    between atoms: _201  and  _202
REMARK   90  A    between atoms: _201  and  _204
REMARK   91  A    between atoms: _204  and  _205
REMARK   92  A    between atoms: _210  and  _212
REMARK   93  A    between atoms: _212  and  _213
REMARK   94  A    between atoms: _216  and  _218
REMARK   95  A    between atoms: _218  and  _219
REMARK   96  A    between atoms: _218  and  _221
REMARK   97  A    between atoms: _221  and  _222
REMARK   98  A    between atoms: _225  and  _227
REMARK   99  A    between atoms: _227  and  _228
REMARK  100  A    between atoms: _227  and  _230
REMARK  101  A    between atoms: _233  and  _235
REMARK  102  A    between atoms: _235  and  _236
REMARK  103  A    between atoms: _239  and  _240
REMARK  104  A    between atoms: _245  and  _247
REMARK  105  A    between atoms: _247  and  _248
REMARK  106  A    between atoms: _247  and  _250
REMARK  107  A    between atoms: _250  and  _251
REMARK  108  A    between atoms: _253  and  _255
REMARK  109  A    between atoms: _255  and  _256
REMARK  110  A    between atoms: _255  and  _258
REMARK  111  A    between atoms: _258  and  _259
REMARK  112  A    between atoms: _262  and  _264
REMARK  113  A    between atoms: _264  and  _265
REMARK  114  A    between atoms: _264  and  _267
REMARK  115  A    between atoms: _267  and  _268
REMARK  116  A    between atoms: _268  and  _269
REMARK  117  A    between atoms: _269  and  _270
REMARK  118  A    between atoms: _279  and  _281
REMARK  119  A    between atoms: _281  and  _282
REMARK  120  A    between atoms: _281  and  _284
REMARK  121  A    between atoms: _284  and  _285
REMARK  122  A    between atoms: _288  and  _290
REMARK  123  A    between atoms: _290  and  _291
REMARK  124  A    between atoms: _290  and  _293
REMARK  125  A    between atoms: _293  and  _294
REMARK  126  A    between atoms: _297  and  _298
REMARK  127  A    between atoms: _303  and  _305
REMARK  128  A    between atoms: _305  and  _306
REMARK  129  A    between atoms: _308  and  _310
REMARK  130  A    between atoms: _310  and  _311
REMARK  131  A    between atoms: _310  and  _313
REMARK  132  A    between atoms: _316  and  _318
REMARK  133  A    between atoms: _318  and  _319
REMARK  134  A    between atoms: _321  and  _323
REMARK  135  A    between atoms: _323  and  _324
REMARK  136  A    between atoms: _327  and  _329
REMARK  137  A    between atoms: _329  and  _330
REMARK  138  A    between atoms: _329  and  _332
REMARK  139  A    between atoms: _332  and  _333
REMARK  140  A    between atoms: _333  and  _334
REMARK  141  A    between atoms: _339  and  _341
REMARK  142  A    between atoms: _341  and  _342
REMARK  143  A    between atoms: _344  and  _346
REMARK  144  A    between atoms: _346  and  _347
REMARK  145  A    between atoms: _349  and  _351
REMARK  146  A    between atoms: _351  and  _352
REMARK  147  A    between atoms: _351  and  _354
REMARK  148  A    between atoms: _354  and  _355
REMARK  149  A    between atoms: _358  and  _360
REMARK  150  A    between atoms: _360  and  _361
REMARK  151  A    between atoms: _360  and  _363
REMARK  152  A    between atoms: _366  and  _368
REMARK  153  A    between atoms: _368  and  _369
REMARK  154  A    between atoms: _371  and  _373
REMARK  155  A    between atoms: _373  and  _374
REMARK  156  A    between atoms: _373  and  _376
REMARK  157  A    between atoms: _376  and  _377
REMARK  158  A    between atoms: _377  and  _378
REMARK  159  A    between atoms: _378  and  _379
REMARK  160  A    between atoms: _388  and  _390
REMARK  161  A    between atoms: _390  and  _391
REMARK  162  A    between atoms: _390  and  _393
REMARK  163  A    between atoms: _393  and  _394
REMARK  164  A    between atoms: _396  and  _398
REMARK  165  A    between atoms: _398  and  _399
REMARK  166  A    between atoms: _398  and  _401
REMARK  167  A    between atoms: _401  and  _402
REMARK  168  A    between atoms: _405  and  _407
REMARK  169  A    between atoms: _407  and  _408
REMARK  170  A    between atoms: _407  and  _410
REMARK  171  A    between atoms: _410  and  _411
REMARK  172  A    between atoms: _416  and  _417
REMARK  173  A    between atoms: _419  and  _421
REMARK  174  A    between atoms: _421  and  _422
REMARK  175  A    between atoms: _421  and  _424
REMARK  176  A    between atoms: _424  and  _425
REMARK  177  A    between atoms: _428  and  _430
REMARK  178  A    between atoms: _430  and  _431
REMARK  179  A    between atoms: _434  and  _436
REMARK  180  A    between atoms: _436  and  _437
REMARK  181  A    between atoms: _436  and  _439
REMARK  182  A    between atoms: _439  and  _440
REMARK  183  A    between atoms: _443  and  _445
REMARK  184  A    between atoms: _445  and  _446
REMARK  185  A    between atoms: _445  and  _448
REMARK  186  A    between atoms: _448  and  _449
REMARK  187  A    between atoms: _453  and  _454
REMARK  188  A    between atoms: _459  and  _461
REMARK  189  A    between atoms: _461  and  _462
REMARK  190  A    between atoms: _461  and  _464
REMARK  191  A    between atoms: _464  and  _465
REMARK  192  A    between atoms: _465  and  _466
REMARK  193  A    between atoms: _469  and  _471
REMARK  194  A    between atoms: _471  and  _472
REMARK  195  A    between atoms: _471  and  _474
REMARK  196  A    between atoms: _474  and  _475
REMARK  197  A    between atoms: _478  and  _480
REMARK  198  A    between atoms: _480  and  _481
REMARK  199  A    between atoms: _480  and  _483
REMARK  200  A    between atoms: _483  and  _484
REMARK  201  A    between atoms: _489  and  _491
REMARK  202  A    between atoms: _491  and  _492
REMARK  203  A    between atoms: _491  and  _494
REMARK  204  A    between atoms: _494  and  _495
REMARK  205  A    between atoms: _495  and  _496
REMARK  206  A    between atoms: _496  and  _497
REMARK  207  A    between atoms: _497  and  _498
REMARK  208  A    between atoms: _502  and  _504
REMARK  209  A    between atoms: _504  and  _505
REMARK  210  A    between atoms: _504  and  _507
REMARK  211  A    between atoms: _507  and  _508
REMARK                            x       y       z     vdW  Elec       q    Type
REMARK                         _______ _______ _______ _____ _____    ______ ____
ROOT
ATOM      1  C   GLU A   3      35.286 -20.682  16.413  0.00  0.00    +0.241 C 
ATOM      2  N   MET A   4      35.076 -19.386  16.639  0.00  0.00    -0.297 N 
ATOM      3  H   MET A   4      35.732 -18.878  17.266  0.00  0.00    +0.150 HD
ATOM      4  O   GLU A   3      34.576 -21.380  15.698  0.00  0.00    -0.273 OA
ENDROOT
BRANCH   1   5
ATOM      5  CA  GLU A   3      36.510 -21.270  17.095  0.00  0.00    +0.149 C 
BRANCH   5   8
ATOM      6  C   THR A   2      35.719 -22.867  18.749  0.00  0.00    +0.243 C 
ATOM      7  O   THR A   2      35.474 -21.975  19.558  0.00  0.00    -0.273 OA
ATOM      8  N   GLU A   3      36.190 -22.608  17.544  0.00  0.00    -0.297 N 
ATOM      9  H   GLU A   3      36.338 -23.401  16.887  0.00  0.00    +0.150 HD
BRANCH   6  10
ATOM     10  CA  THR A   2      35.383 -24.327  19.133  0.00  0.00    +0.176 C 
BRANCH  10  13
ATOM     11  C   LEU A   1      33.075 -24.383  19.926  0.00  0.00    +0.238 C 
ATOM     12  O   LEU A   1      33.412 -24.121  21.086  0.00  0.00    -0.274 OA
ATOM     13  N   THR A   2      33.954 -24.470  18.910  0.00  0.00    -0.295 N 
ATOM     14  H   THR A   2      33.603 -24.643  17.946  0.00  0.00    +0.150 HD
BRANCH  11  15
ATOM     15  CA  LEU A   1      31.601 -24.611  19.538  0.00  0.00    +0.145 C 
BRANCH  15  16
ATOM     16  N   LEU A   1      31.094 -25.727  20.336  0.00  0.00    -0.238 NA
ATOM     17  H   LEU A   1      30.550 -25.529  21.200  0.00  0.00    +0.142 HD
ENDBRANCH  15  16
BRANCH  15  18
ATOM     18  CB  LEU A   1      30.733 -23.356  19.818  0.00  0.00    +0.026 C 
BRANCH  18  19
ATOM     19  CG  LEU A   1      31.195 -22.046  19.162  0.00  0.00    +0.002 C 
ATOM     20  CD2 LEU A   1      30.134 -20.987  19.515  0.00  0.00    +0.000 C 
ATOM     21  CD1 LEU A   1      31.330 -22.160  17.636  0.00  0.00    +0.000 C 
ENDBRANCH  18  19
ENDBRANCH  15  18
ENDBRANCH  11  15
ENDBRANCH  10  13
BRANCH  10  22
ATOM     22  CB  THR A   2      36.165 -25.430  18.317  0.00  0.00    +0.137 C 
ATOM     23  CG2 THR A   2      35.704 -26.829  18.789  0.00  0.00    +0.034 C 
BRANCH  22  24
ATOM     24  OG1 THR A   2      35.923 -25.276  16.912  0.00  0.00    -0.382 OA
ATOM     25  HG1 THR A   2      34.954 -25.368  16.733  0.00  0.00    +0.210 HD
ENDBRANCH  22  24
ENDBRANCH  10  22
ENDBRANCH   6  10
ENDBRANCH   5   8
BRANCH   5  26
ATOM     26  CB  GLU A   3      37.685 -21.315  16.095  0.00  0.00    +0.041 C 
BRANCH  26  27
ATOM     27  CG  GLU A   3      38.167 -19.893  15.709  0.00  0.00    +0.116 C 
BRANCH  27  28
ATOM     28  CD  GLU A   3      39.495 -19.900  14.987  0.00  0.00    +0.365 C 
ATOM     29  OE2 GLU A   3      40.305 -20.775  15.294  0.00  0.00    -0.246 OA
ATOM     30  OE1 GLU A   3      39.728 -19.006  14.152  0.00  0.00    -0.246 OA
ENDBRANCH  27  28
ENDBRANCH  26  27
ENDBRANCH   5  26
ENDBRANCH   1   5
BRANCH   2  31
ATOM     31  CA  MET A   4      33.960 -18.645  16.043  0.00  0.00    +0.149 C 
BRANCH  31  32
ATOM     32  C   MET A   4      34.415 -17.990  14.731  0.00  0.00    +0.241 C 
ATOM     33  O   MET A   4      35.594 -17.814  14.455  0.00  0.00    -0.273 OA
ATOM     34  N   SER A   5      33.440 -17.609  13.932  0.00  0.00    -0.295 N 
ATOM     35  H   SER A   5      32.459 -17.678  14.271  0.00  0.00    +0.150 HD
BRANCH  34  36
ATOM     36  CA  SER A   5      33.685 -17.091  12.580  0.00  0.00    +0.178 C 
BRANCH  36  37
ATOM     37  C   SER A   5      33.887 -15.610  12.412  0.00  0.00    +0.243 C 
ATOM     38  N   HIS A   6      33.498 -14.810  13.405  0.00  0.00    -0.298 N 
ATOM     39  H   HIS A   6      33.132 -15.224  14.286  0.00  0.00    +0.150 HD
ATOM     40  O   SER A   5      34.391 -15.187  11.363  0.00  0.00    -0.273 OA
BRANCH  38  41
ATOM     41  CA  HIS A   6      33.581 -13.349  13.266  0.00  0.00    +0.143 C 
BRANCH  41  42
ATOM     42  C   HIS A   6      34.980 -12.808  13.551  0.00  0.00    +0.227 C 
ATOM     43  O   HIS A   6      35.815 -13.484  14.177  0.00  0.00    -0.286 OA
ENDBRANCH  41  42
BRANCH  41  44
ATOM     44  CB  HIS A   6      32.527 -12.701  14.192  0.00  0.00    +0.075 C 
BRANCH  44  45
ATOM     45  CG  HIS A   6      32.777 -12.978  15.630  0.00  0.00    +0.082 A 
ATOM     46  CD2 HIS A   6      33.114 -12.148  16.645  0.00  0.00    +0.115 A 
ATOM     47  NE2 HIS A   6      33.332 -12.931  17.752  0.00  0.00    -0.221 NA
ATOM     48  CE1 HIS A   6      33.117 -14.197  17.427  0.00  0.00    +0.199 A 
ATOM     49  ND1 HIS A   6      32.772 -14.265  16.151  0.00  0.00    -0.227 NA
ENDBRANCH  44  45
ENDBRANCH  41  44
ENDBRANCH  38  41
ENDBRANCH  36  37
BRANCH  36  50
ATOM     50  CB  SER A   5      32.498 -17.531  11.681  0.00  0.00    +0.166 C 
BRANCH  50  51
ATOM     51  OG  SER A   5      31.283 -16.860  12.099  0.00  0.00    -0.380 OA
ATOM     52  H   SER A   5      31.405 -15.881  12.022  0.00  0.00    +0.211 HD
ENDBRANCH  50  51
ENDBRANCH  36  50
ENDBRANCH  34  36
ENDBRANCH  31  32
BRANCH  31  53
ATOM     53  CB  MET A   4      33.428 -17.614  17.028  0.00  0.00    +0.041 C 
BRANCH  53  54
ATOM     54  CG  MET A   4      32.609 -18.308  18.126  0.00  0.00    +0.060 C 
BRANCH  54  55
ATOM     55  SD  MET A   4      31.884 -17.152  19.264  0.00  0.00    -0.139 S 
ATOM     56  CE  MET A   4      30.510 -16.458  18.293  0.00  0.00    +0.069 C 
ENDBRANCH  54  55
ENDBRANCH  53  54
ENDBRANCH  31  53
ENDBRANCH   2  31
TORSDOF 26
REMARK  Name = ../refined-set-2016/1x1z/1x1z_pocket.pdb
REMARK  211 active torsions:
REMARK  status: ('A' for Active; 'I' for Inactive)
REMARK    1  A    between atoms: _1  and  _3
REMARK    2  A    between atoms: _3  and  _4
REMARK    3  A    between atoms: _3  and  _6
REMARK    4  A    between atoms: _6  and  _7
REMARK    5  A    between atoms: _10  and  _12
REMARK    6  A    between atoms: _12  and  _13
REMARK    7  A    between atoms: _12  and  _15
REMARK    8  A    between atoms: _15  and  _16
REMARK    9  A    between atoms: _19  and  _21
REMARK   10  A    between atoms: _21  and  _22
REMARK   11  A    between atoms: _25  and  _27
REMARK   12  A    between atoms: _27  and  _28
REMARK   13  A    between atoms: _27  and  _30
REMARK   14  A    between atoms: _30  and  _31
REMARK   15  A    between atoms: _31  and  _32
REMARK   16  A    between atoms: _34  and  _36
REMARK   17  A    between atoms: _36  and  _37
REMARK   18  A    between atoms: _36  and  _39
REMARK   19  A    between atoms: _39  and  _40
REMARK   20  A    between atoms: _43  and  _45
REMARK   21  A    between atoms: _45  and  _46
REMARK   22  A    between atoms: _45  and  _48
REMARK   23  A    between atoms: _48  and  _49
REMARK   24  A    between atoms: _49  and  _50
REMARK   25  A    between atoms: _50  and  _51
REMARK   26  A    between atoms: _51  and  _52
REMARK   27  A    between atoms: _56  and  _58
REMARK   28  A    between atoms: _58  and  _59
REMARK   29  A    between atoms: _58  and  _61
REMARK   30  A    between atoms: _61  and  _62
REMARK   31  A    between atoms: _65  and  _67
REMARK   32  A    between atoms: _67  and  _68
REMARK   33  A    between atoms: _70  and  _72
REMARK   34  A    between atoms: _72  and  _73
REMARK   35  A    between atoms: _72  and  _75
REMARK   36  A    between atoms: _75  and  _76
REMARK   37  A    between atoms: _81  and  _82
REMARK   38  A    between atoms: _85  and  _86
REMARK   39  A    between atoms: _91  and  _93
REMARK   40  A    between atoms: _93  and  _94
REMARK   41  A    between atoms: _93  and  _96
REMARK   42  A    between atoms: _96  and  _97
REMARK   43  A    between atoms: _100  and  _102
REMARK   44  A    between atoms: _102  and  _103
REMARK   45  A    between atoms: _102  and  _105
REMARK   46  A    between atoms: _105  and  _106
REMARK   47  A    between atoms: _109  and  _111
REMARK   48  A    between atoms: _111  and  _112
REMARK   49  A    between atoms: _111  and  _114
REMARK   50  A    between atoms: _114  and  _115
REMARK   51  A    between atoms: _121  and  _123
REMARK   52  A    between atoms: _123  and  _124
REMARK   53  A    between atoms: _123  and  _126
REMARK   54  A    between atoms: _126  and  _127
REMARK   55  A    between atoms: _127  and  _128
REMARK   56  A    between atoms: _128  and  _129
REMARK   57  A    between atoms: _129  and  _130
REMARK   58  A    between atoms: _134  and  _136
REMARK   59  A    between atoms: _136  and  _137
REMARK   60  A    between atoms: _136  and  _139
REMARK   61  A    between atoms: _139  and  _140
REMARK   62  A    between atoms: _143  and  _145
REMARK   63  A    between atoms: _145  and  _146
REMARK   64  A    between atoms: _145  and  _148
REMARK   65  A    between atoms: _148  and  _149
REMARK   66  A    between atoms: _154  and  _156
REMARK   67  A    between atoms: _156  and  _157
REMARK   68  A    between atoms: _156  and  _159
REMARK   69  A    between atoms: _159  and  _160
REMARK   70  A    between atoms: _163  and  _165
REMARK   71  A    between atoms: _165  and  _166
REMARK   72  A    between atoms: _165  and  _168
REMARK   73  A    between atoms: _168  and  _169
REMARK   74  A    between atoms: _172  and  _174
REMARK   75  A    between atoms: _174  and  _175
REMARK   76  A    between atoms: _174  and  _177
REMARK   77  A    between atoms: _177  and  _178
REMARK   78  A    between atoms: _178  and  _179
REMARK   79  A    between atoms: _182  and  _184
REMARK   80  A    between atoms: _184  and  _185
REMARK   81  A    between atoms: _184  and  _187
REMARK   82  A    between atoms: _187  and  _188
REMARK   83  A    between atoms: _188  and  _189
REMARK   84  A    between atoms: _191  and  _193
REMARK   85  A    between atoms: _193  and  _194
REMARK   86  A    between atoms: _193  and  _196
REMARK   87  A    between atoms: _196  and  _197
REMARK   88  A    between atoms: _199  and  _201
REMARK   89  A    between atoms: _201  and  _202
REMARK   90  A    between atoms: _201  and  _204
REMARK   91  A    between atoms: _204  and  _205
REMARK   92  A    between atoms: _210  and  _212
REMARK   93  A    between atoms: _212  and  _213
REMARK   94  A    between atoms: _216  and  _218
REMARK   95  A    between atoms: _218  and  _219
REMARK   96  A    between atoms: _218  and  _221
REMARK   97  A    between atoms: _221  and  _222
REMARK   98  A    between atoms: _225  and  _227
REMARK   99  A    between atoms: _227  and  _228
REMARK  100  A    between atoms: _227  and  _230
REMARK  101  A    between atoms: _233  and  _235
REMARK  102  A    between atoms: _235  and  _236
REMARK  103  A    between atoms: _239  and  _240
REMARK  104  A    between atoms: _245  and  _247
REMARK  105  A    between atoms: _247  and  _248
REMARK  106  A    between atoms: _247  and  _250
REMARK  107  A    between atoms: _250  and  _251
REMARK  108  A    between atoms: _253  and  _255
REMARK  109  A    between atoms: _255  and  _256
REMARK  110  A    between atoms: _255  and  _258
REMARK  111  A    between atoms: _258  and  _259
REMARK  112  A    between atoms: _262  and  _264
REMARK  113  A    between atoms: _264  and  _265
REMARK  114  A    between atoms: _264  and  _267
REMARK  115  A    between atoms: _267  and  _268
REMARK  116  A    between atoms: _268  and  _269
REMARK  117  A    between atoms: _269  and  _270
REMARK  118  A    between atoms: _279  and  _281
REMARK  119  A    between atoms: _281  and  _282
REMARK  120  A    between atoms: _281  and  _284
REMARK  121  A    between atoms: _284  and  _285
REMARK  122  A    between atoms: _288  and  _290
REMARK  123  A    between atoms: _290  and  _291
REMARK  124  A    between atoms: _290  and  _293
REMARK  125  A    between atoms: _293  and  _294
REMARK  126  A    between atoms: _297  and  _298
REMARK  127  A    between atoms: _303  and  _305
REMARK  128  A    between atoms: _305  and  _306
REMARK  129  A    between atoms: _308  and  _310
REMARK  130  A    between atoms: _310  and  _311
REMARK  131  A    between atoms: _310  and  _313
REMARK  132  A    between atoms: _316  and  _318
REMARK  133  A    between atoms: _318  and  _319
REMARK  134  A    between atoms: _321  and  _323
REMARK  135  A    between atoms: _323  and  _324
REMARK  136  A    between atoms: _327  and  _329
REMARK  137  A    between atoms: _329  and  _330
REMARK  138  A    between atoms: _329  and  _332
REMARK  139  A    between atoms: _332  and  _333
REMARK  140  A    between atoms: _333  and  _334
REMARK  141  A    between atoms: _339  and  _341
REMARK  142  A    between atoms: _341  and  _342
REMARK  143  A    between atoms: _344  and  _346
REMARK  144  A    between atoms: _346  and  _347
REMARK  145  A    between atoms: _349  and  _351
REMARK  146  A    between atoms: _351  and  _352
REMARK  147  A    between atoms: _351  and  _354
REMARK  148  A    between atoms: _354  and  _355
REMARK  149  A    between atoms: _358  and  _360
REMARK  150  A    between atoms: _360  and  _361
REMARK  151  A    between atoms: _360  and  _363
REMARK  152  A    between atoms: _366  and  _368
REMARK  153  A    between atoms: _368  and  _369
REMARK  154  A    between atoms: _371  and  _373
REMARK  155  A    between atoms: _373  and  _374
REMARK  156  A    between atoms: _373  and  _376
REMARK  157  A    between atoms: _376  and  _377
REMARK  158  A    between atoms: _377  and  _378
REMARK  159  A    between atoms: _378  and  _379
REMARK  160  A    between atoms: _388  and  _390
REMARK  161  A    between atoms: _390  and  _391
REMARK  162  A    between atoms: _390  and  _393
REMARK  163  A    between atoms: _393  and  _394
REMARK  164  A    between atoms: _396  and  _398
REMARK  165  A    between atoms: _398  and  _399
REMARK  166  A    between atoms: _398  and  _401
REMARK  167  A    between atoms: _401  and  _402
REMARK  168  A    between atoms: _405  and  _407
REMARK  169  A    between atoms: _407  and  _408
REMARK  170  A    between atoms: _407  and  _410
REMARK  171  A    between atoms: _410  and  _411
REMARK  172  A    between atoms: _416  and  _417
REMARK  173  A    between atoms: _419  and  _421
REMARK  174  A    between atoms: _421  and  _422
REMARK  175  A    between atoms: _421  and  _424
REMARK  176  A    between atoms: _424  and  _425
REMARK  177  A    between atoms: _428  and  _430
REMARK  178  A    between atoms: _430  and  _431
REMARK  179  A    between atoms: _434  and  _436
REMARK  180  A    between atoms: _436  and  _437
REMARK  181  A    between atoms: _436  and  _439
REMARK  182  A    between atoms: _439  and  _440
REMARK  183  A    between atoms: _443  and  _445
REMARK  184  A    between atoms: _445  and  _446
REMARK  185  A    between atoms: _445  and  _448
REMARK  186  A    between atoms: _448  and  _449
REMARK  187  A    between atoms: _453  and  _454
REMARK  188  A    between atoms: _459  and  _461
REMARK  189  A    between atoms: _461  and  _462
REMARK  190  A    between atoms: _461  and  _464
REMARK  191  A    between atoms: _464  and  _465
REMARK  192  A    between atoms: _465  and  _466
REMARK  193  A    between atoms: _469  and  _471
REMARK  194  A    between atoms: _471  and  _472
REMARK  195  A    between atoms: _471  and  _474
REMARK  196  A    between atoms: _474  and  _475
REMARK  197  A    between atoms: _478  and  _480
REMARK  198  A    between atoms: _480  and  _481
REMARK  199  A    between atoms: _480  and  _483
REMARK  200  A    between atoms: _483  and  _484
REMARK  201  A    between atoms: _489  and  _491
REMARK  202  A    between atoms: _491  and  _492
REMARK  203  A    between atoms: _491  and  _494
REMARK  204  A    between atoms: _494  and  _495
REMARK  205  A    between atoms: _495  and  _496
REMARK  206  A    between atoms: _496  and  _497
REMARK  207  A    between atoms: _497  and  _498
REMARK  208  A    between atoms: _502  and  _504
REMARK  209  A    between atoms: _504  and  _505
REMARK  210  A    between atoms: _504  and  _507
REMARK  211  A    between atoms: _507  and  _508
REMARK                            x       y       z     vdW  Elec       q    Type
REMARK                         _______ _______ _______ _____ _____    ______ ____
ROOT
ATOM      1  CA  ALA A   1      37.162 -14.467  17.494  0.00  0.00    +0.133 C 
ATOM      2  CB  ALA A   1      36.604 -15.521  16.555  0.00  0.00    +0.027 C 
ENDROOT
BRANCH   1   3
ATOM      3  N   ALA A   1      36.700 -13.141  17.055  0.00  0.00    -0.239 NA
ATOM      4  H   ALA A   1      36.085 -13.062  16.220  0.00  0.00    +0.142 HD
ENDBRANCH   1   3
BRANCH   1   5
ATOM      5  C   ALA A   1      38.679 -14.554  17.514  0.00  0.00    +0.224 C 
ATOM      6  O   ALA A   1      39.230 -15.387  18.217  0.00  0.00    -0.287 OA
ENDBRANCH   1   5
TORSDOF 2
REMARK  Name = ../refined-set-2016/1x1z/1x1z_pocket.pdb
REMARK  211 active torsions:
REMARK  status: ('A' for Active; 'I' for Inactive)
REMARK    1  A    between atoms: _1  and  _3
REMARK    2  A    between atoms: _3  and  _4
REMARK    3  A    between atoms: _3  and  _6
REMARK    4  A    between atoms: _6  and  _7
REMARK    5  A    between atoms: _10  and  _12
REMARK    6  A    between atoms: _12  and  _13
REMARK    7  A    between atoms: _12  and  _15
REMARK    8  A    between atoms: _15  and  _16
REMARK    9  A    between atoms: _19  and  _21
REMARK   10  A    between atoms: _21  and  _22
REMARK   11  A    between atoms: _25  and  _27
REMARK   12  A    between atoms: _27  and  _28
REMARK   13  A    between atoms: _27  and  _30
REMARK   14  A    between atoms: _30  and  _31
REMARK   15  A    between atoms: _31  and  _32
REMARK   16  A    between atoms: _34  and  _36
REMARK   17  A    between atoms: _36  and  _37
REMARK   18  A    between atoms: _36  and  _39
REMARK   19  A    between atoms: _39  and  _40
REMARK   20  A    between atoms: _43  and  _45
REMARK   21  A    between atoms: _45  and  _46
REMARK   22  A    between atoms: _45  and  _48
REMARK   23  A    between atoms: _48  and  _49
REMARK   24  A    between atoms: _49  and  _50
REMARK   25  A    between atoms: _50  and  _51
REMARK   26  A    between atoms: _51  and  _52
REMARK   27  A    between atoms: _56  and  _58
REMARK   28  A    between atoms: _58  and  _59
REMARK   29  A    between atoms: _58  and  _61
REMARK   30  A    between atoms: _61  and  _62
REMARK   31  A    between atoms: _65  and  _67
REMARK   32  A    between atoms: _67  and  _68
REMARK   33  A    between atoms: _70  and  _72
REMARK   34  A    between atoms: _72  and  _73
REMARK   35  A    between atoms: _72  and  _75
REMARK   36  A    between atoms: _75  and  _76
REMARK   37  A    between atoms: _81  and  _82
REMARK   38  A    between atoms: _85  and  _86
REMARK   39  A    between atoms: _91  and  _93
REMARK   40  A    between atoms: _93  and  _94
REMARK   41  A    between atoms: _93  and  _96
REMARK   42  A    between atoms: _96  and  _97
REMARK   43  A    between atoms: _100  and  _102
REMARK   44  A    between atoms: _102  and  _103
REMARK   45  A    between atoms: _102  and  _105
REMARK   46  A    between atoms: _105  and  _106
REMARK   47  A    between atoms: _109  and  _111
REMARK   48  A    between atoms: _111  and  _112
REMARK   49  A    between atoms: _111  and  _114
REMARK   50  A    between atoms: _114  and  _115
REMARK   51  A    between atoms: _121  and  _123
REMARK   52  A    between atoms: _123  and  _124
REMARK   53  A    between atoms: _123  and  _126
REMARK   54  A    between atoms: _126  and  _127
REMARK   55  A    between atoms: _127  and  _128
REMARK   56  A    between atoms: _128  and  _129
REMARK   57  A    between atoms: _129  and  _130
REMARK   58  A    between atoms: _134  and  _136
REMARK   59  A    between atoms: _136  and  _137
REMARK   60  A    between atoms: _136  and  _139
REMARK   61  A    between atoms: _139  and  _140
REMARK   62  A    between atoms: _143  and  _145
REMARK   63  A    between atoms: _145  and  _146
REMARK   64  A    between atoms: _145  and  _148
REMARK   65  A    between atoms: _148  and  _149
REMARK   66  A    between atoms: _154  and  _156
REMARK   67  A    between atoms: _156  and  _157
REMARK   68  A    between atoms: _156  and  _159
REMARK   69  A    between atoms: _159  and  _160
REMARK   70  A    between atoms: _163  and  _165
REMARK   71  A    between atoms: _165  and  _166
REMARK   72  A    between atoms: _165  and  _168
REMARK   73  A    between atoms: _168  and  _169
REMARK   74  A    between atoms: _172  and  _174
REMARK   75  A    between atoms: _174  and  _175
REMARK   76  A    between atoms: _174  and  _177
REMARK   77  A    between atoms: _177  and  _178
REMARK   78  A    between atoms: _178  and  _179
REMARK   79  A    between atoms: _182  and  _184
REMARK   80  A    between atoms: _184  and  _185
REMARK   81  A    between atoms: _184  and  _187
REMARK   82  A    between atoms: _187  and  _188
REMARK   83  A    between atoms: _188  and  _189
REMARK   84  A    between atoms: _191  and  _193
REMARK   85  A    between atoms: _193  and  _194
REMARK   86  A    between atoms: _193  and  _196
REMARK   87  A    between atoms: _196  and  _197
REMARK   88  A    between atoms: _199  and  _201
REMARK   89  A    between atoms: _201  and  _202
REMARK   90  A    between atoms: _201  and  _204
REMARK   91  A    between atoms: _204  and  _205
REMARK   92  A    between atoms: _210  and  _212
REMARK   93  A    between atoms: _212  and  _213
REMARK   94  A    between atoms: _216  and  _218
REMARK   95  A    between atoms: _218  and  _219
REMARK   96  A    between atoms: _218  and  _221
REMARK   97  A    between atoms: _221  and  _222
REMARK   98  A    between atoms: _225  and  _227
REMARK   99  A    between atoms: _227  and  _228
REMARK  100  A    between atoms: _227  and  _230
REMARK  101  A    between atoms: _233  and  _235
REMARK  102  A    between atoms: _235  and  _236
REMARK  103  A    between atoms: _239  and  _240
REMARK  104  A    between atoms: _245  and  _247
REMARK  105  A    between atoms: _247  and  _248
REMARK  106  A    between atoms: _247  and  _250
REMARK  107  A    between atoms: _250  and  _251
REMARK  108  A    between atoms: _253  and  _255
REMARK  109  A    between atoms: _255  and  _256
REMARK  110  A    between atoms: _255  and  _258
REMARK  111  A    between atoms: _258  and  _259
REMARK  112  A    between atoms: _262  and  _264
REMARK  113  A    between atoms: _264  and  _265
REMARK  114  A    between atoms: _264  and  _267
REMARK  115  A    between atoms: _267  and  _268
REMARK  116  A    between atoms: _268  and  _269
REMARK  117  A    between atoms: _269  and  _270
REMARK  118  A    between atoms: _279  and  _281
REMARK  119  A    between atoms: _281  and  _282
REMARK  120  A    between atoms: _281  and  _284
REMARK  121  A    between atoms: _284  and  _285
REMARK  122  A    between atoms: _288  and  _290
REMARK  123  A    between atoms: _290  and  _291
REMARK  124  A    between atoms: _290  and  _293
REMARK  125  A    between atoms: _293  and  _294
REMARK  126  A    between atoms: _297  and  _298
REMARK  127  A    between atoms: _303  and  _305
REMARK  128  A    between atoms: _305  and  _306
REMARK  129  A    between atoms: _308  and  _310
REMARK  130  A    between atoms: _310  and  _311
REMARK  131  A    between atoms: _310  and  _313
REMARK  132  A    between atoms: _316  and  _318
REMARK  133  A    between atoms: _318  and  _319
REMARK  134  A    between atoms: _321  and  _323
REMARK  135  A    between atoms: _323  and  _324
REMARK  136  A    between atoms: _327  and  _329
REMARK  137  A    between atoms: _329  and  _330
REMARK  138  A    between atoms: _329  and  _332
REMARK  139  A    between atoms: _332  and  _333
REMARK  140  A    between atoms: _333  and  _334
REMARK  141  A    between atoms: _339  and  _341
REMARK  142  A    between atoms: _341  and  _342
REMARK  143  A    between atoms: _344  and  _346
REMARK  144  A    between atoms: _346  and  _347
REMARK  145  A    between atoms: _349  and  _351
REMARK  146  A    between atoms: _351  and  _352
REMARK  147  A    between atoms: _351  and  _354
REMARK  148  A    between atoms: _354  and  _355
REMARK  149  A    between atoms: _358  and  _360
REMARK  150  A    between atoms: _360  and  _361
REMARK  151  A    between atoms: _360  and  _363
REMARK  152  A    between atoms: _366  and  _368
REMARK  153  A    between atoms: _368  and  _369
REMARK  154  A    between atoms: _371  and  _373
REMARK  155  A    between atoms: _373  and  _374
REMARK  156  A    between atoms: _373  and  _376
REMARK  157  A    between atoms: _376  and  _377
REMARK  158  A    between atoms: _377  and  _378
REMARK  159  A    between atoms: _378  and  _379
REMARK  160  A    between atoms: _388  and  _390
REMARK  161  A    between atoms: _390  and  _391
REMARK  162  A    between atoms: _390  and  _393
REMARK  163  A    between atoms: _393  and  _394
REMARK  164  A    between atoms: _396  and  _398
REMARK  165  A    between atoms: _398  and  _399
REMARK  166  A    between atoms: _398  and  _401
REMARK  167  A    between atoms: _401  and  _402
REMARK  168  A    between atoms: _405  and  _407
REMARK  169  A    between atoms: _407  and  _408
REMARK  170  A    between atoms: _407  and  _410
REMARK  171  A    between atoms: _410  and  _411
REMARK  172  A    between atoms: _416  and  _417
REMARK  173  A    between atoms: _419  and  _421
REMARK  174  A    between atoms: _421  and  _422
REMARK  175  A    between atoms: _421  and  _424
REMARK  176  A    between atoms: _424  and  _425
REMARK  177  A    between atoms: _428  and  _430
REMARK  178  A    between atoms: _430  and  _431
REMARK  179  A    between atoms: _434  and  _436
REMARK  180  A    between atoms: _436  and  _437
REMARK  181  A    between atoms: _436  and  _439
REMARK  182  A    between atoms: _439  and  _440
REMARK  183  A    between atoms: _443  and  _445
REMARK  184  A    between atoms: _445  and  _446
REMARK  185  A    between atoms: _445  and  _448
REMARK  186  A    between atoms: _448  and  _449
REMARK  187  A    between atoms: _453  and  _454
REMARK  188  A    between atoms: _459  and  _461
REMARK  189  A    between atoms: _461  and  _462
REMARK  190  A    between atoms: _461  and  _464
REMARK  191  A    between atoms: _464  and  _465
REMARK  192  A    between atoms: _465  and  _466
REMARK  193  A    between atoms: _469  and  _471
REMARK  194  A    between atoms: _471  and  _472
REMARK  195  A    between atoms: _471  and  _474
REMARK  196  A    between atoms: _474  and  _475
REMARK  197  A    between atoms: _478  and  _480
REMARK  198  A    between atoms: _480  and  _481
REMARK  199  A    between atoms: _480  and  _483
REMARK  200  A    between atoms: _483  and  _484
REMARK  201  A    between atoms: _489  and  _491
REMARK  202  A    between atoms: _491  and  _492
REMARK  203  A    between atoms: _491  and  _494
REMARK  204  A    between atoms: _494  and  _495
REMARK  205  A    between atoms: _495  and  _496
REMARK  206  A    between atoms: _496  and  _497
REMARK  207  A    between atoms: _497  and  _498
REMARK  208  A    between atoms: _502  and  _504
REMARK  209  A    between atoms: _504  and  _505
REMARK  210  A    between atoms: _504  and  _507
REMARK  211  A    between atoms: _507  and  _508
REMARK                            x       y       z     vdW  Elec       q    Type
REMARK                         _______ _______ _______ _____ _____    ______ ____
ROOT
ATOM      1  CA  ILE A   1      38.969 -17.672  21.126  0.00  0.00    +0.133 C 
ENDROOT
BRANCH   1   2
ATOM      2  N   ILE A   1      39.397 -16.306  21.397  0.00  0.00    -0.239 NA
ATOM      3  H   ILE A   1      38.895 -15.495  20.982  0.00  0.00    +0.142 HD
ENDBRANCH   1   2
BRANCH   1   4
ATOM      4  CB  ILE A   1      37.558 -17.686  20.463  0.00  0.00    +0.023 C 
ATOM      5  CG2 ILE A   1      37.261 -19.077  19.907  0.00  0.00    +0.002 C 
BRANCH   4   6
ATOM      6  CG1 ILE A   1      36.515 -17.258  21.488  0.00  0.00    +0.002 C 
ATOM      7  CD1 ILE A   1      35.145 -17.005  20.852  0.00  0.00    +0.000 C 
ENDBRANCH   4   6
ENDBRANCH   1   4
BRANCH   1   8
ATOM      8  C   ILE A   1      39.930 -18.471  20.259  0.00  0.00    +0.224 C 
ATOM      9  O   ILE A   1      40.199 -19.637  20.527  0.00  0.00    -0.287 OA
ENDBRANCH   1   8
TORSDOF 4
REMARK  Name = ../refined-set-2016/1x1z/1x1z_pocket.pdb
REMARK  211 active torsions:
REMARK  status: ('A' for Active; 'I' for Inactive)
REMARK    1  A    between atoms: _1  and  _3
REMARK    2  A    between atoms: _3  and  _4
REMARK    3  A    between atoms: _3  and  _6
REMARK    4  A    between atoms: _6  and  _7
REMARK    5  A    between atoms: _10  and  _12
REMARK    6  A    between atoms: _12  and  _13
REMARK    7  A    between atoms: _12  and  _15
REMARK    8  A    between atoms: _15  and  _16
REMARK    9  A    between atoms: _19  and  _21
REMARK   10  A    between atoms: _21  and  _22
REMARK   11  A    between atoms: _25  and  _27
REMARK   12  A    between atoms: _27  and  _28
REMARK   13  A    between atoms: _27  and  _30
REMARK   14  A    between atoms: _30  and  _31
REMARK   15  A    between atoms: _31  and  _32
REMARK   16  A    between atoms: _34  and  _36
REMARK   17  A    between atoms: _36  and  _37
REMARK   18  A    between atoms: _36  and  _39
REMARK   19  A    between atoms: _39  and  _40
REMARK   20  A    between atoms: _43  and  _45
REMARK   21  A    between atoms: _45  and  _46
REMARK   22  A    between atoms: _45  and  _48
REMARK   23  A    between atoms: _48  and  _49
REMARK   24  A    between atoms: _49  and  _50
REMARK   25  A    between atoms: _50  and  _51
REMARK   26  A    between atoms: _51  and  _52
REMARK   27  A    between atoms: _56  and  _58
REMARK   28  A    between atoms: _58  and  _59
REMARK   29  A    between atoms: _58  and  _61
REMARK   30  A    between atoms: _61  and  _62
REMARK   31  A    between atoms: _65  and  _67
REMARK   32  A    between atoms: _67  and  _68
REMARK   33  A    between atoms: _70  and  _72
REMARK   34  A    between atoms: _72  and  _73
REMARK   35  A    between atoms: _72  and  _75
REMARK   36  A    between atoms: _75  and  _76
REMARK   37  A    between atoms: _81  and  _82
REMARK   38  A    between atoms: _85  and  _86
REMARK   39  A    between atoms: _91  and  _93
REMARK   40  A    between atoms: _93  and  _94
REMARK   41  A    between atoms: _93  and  _96
REMARK   42  A    between atoms: _96  and  _97
REMARK   43  A    between atoms: _100  and  _102
REMARK   44  A    between atoms: _102  and  _103
REMARK   45  A    between atoms: _102  and  _105
REMARK   46  A    between atoms: _105  and  _106
REMARK   47  A    between atoms: _109  and  _111
REMARK   48  A    between atoms: _111  and  _112
REMARK   49  A    between atoms: _111  and  _114
REMARK   50  A    between atoms: _114  and  _115
REMARK   51  A    between atoms: _121  and  _123
REMARK   52  A    between atoms: _123  and  _124
REMARK   53  A    between atoms: _123  and  _126
REMARK   54  A    between atoms: _126  and  _127
REMARK   55  A    between atoms: _127  and  _128
REMARK   56  A    between atoms: _128  and  _129
REMARK   57  A    between atoms: _129  and  _130
REMARK   58  A    between atoms: _134  and  _136
REMARK   59  A    between atoms: _136  and  _137
REMARK   60  A    between atoms: _136  and  _139
REMARK   61  A    between atoms: _139  and  _140
REMARK   62  A    between atoms: _143  and  _145
REMARK   63  A    between atoms: _145  and  _146
REMARK   64  A    between atoms: _145  and  _148
REMARK   65  A    between atoms: _148  and  _149
REMARK   66  A    between atoms: _154  and  _156
REMARK   67  A    between atoms: _156  and  _157
REMARK   68  A    between atoms: _156  and  _159
REMARK   69  A    between atoms: _159  and  _160
REMARK   70  A    between atoms: _163  and  _165
REMARK   71  A    between atoms: _165  and  _166
REMARK   72  A    between atoms: _165  and  _168
REMARK   73  A    between atoms: _168  and  _169
REMARK   74  A    between atoms: _172  and  _174
REMARK   75  A    between atoms: _174  and  _175
REMARK   76  A    between atoms: _174  and  _177
REMARK   77  A    between atoms: _177  and  _178
REMARK   78  A    between atoms: _178  and  _179
REMARK   79  A    between atoms: _182  and  _184
REMARK   80  A    between atoms: _184  and  _185
REMARK   81  A    between atoms: _184  and  _187
REMARK   82  A    between atoms: _187  and  _188
REMARK   83  A    between atoms: _188  and  _189
REMARK   84  A    between atoms: _191  and  _193
REMARK   85  A    between atoms: _193  and  _194
REMARK   86  A    between atoms: _193  and  _196
REMARK   87  A    between atoms: _196  and  _197
REMARK   88  A    between atoms: _199  and  _201
REMARK   89  A    between atoms: _201  and  _202
REMARK   90  A    between atoms: _201  and  _204
REMARK   91  A    between atoms: _204  and  _205
REMARK   92  A    between atoms: _210  and  _212
REMARK   93  A    between atoms: _212  and  _213
REMARK   94  A    between atoms: _216  and  _218
REMARK   95  A    between atoms: _218  and  _219
REMARK   96  A    between atoms: _218  and  _221
REMARK   97  A    between atoms: _221  and  _222
REMARK   98  A    between atoms: _225  and  _227
REMARK   99  A    between atoms: _227  and  _228
REMARK  100  A    between atoms: _227  and  _230
REMARK  101  A    between atoms: _233  and  _235
REMARK  102  A    between atoms: _235  and  _236
REMARK  103  A    between atoms: _239  and  _240
REMARK  104  A    between atoms: _245  and  _247
REMARK  105  A    between atoms: _247  and  _248
REMARK  106  A    between atoms: _247  and  _250
REMARK  107  A    between atoms: _250  and  _251
REMARK  108  A    between atoms: _253  and  _255
REMARK  109  A    between atoms: _255  and  _256
REMARK  110  A    between atoms: _255  and  _258
REMARK  111  A    between atoms: _258  and  _259
REMARK  112  A    between atoms: _262  and  _264
REMARK  113  A    between atoms: _264  and  _265
REMARK  114  A    between atoms: _264  and  _267
REMARK  115  A    between atoms: _267  and  _268
REMARK  116  A    between atoms: _268  and  _269
REMARK  117  A    between atoms: _269  and  _270
REMARK  118  A    between atoms: _279  and  _281
REMARK  119  A    between atoms: _281  and  _282
REMARK  120  A    between atoms: _281  and  _284
REMARK  121  A    between atoms: _284  and  _285
REMARK  122  A    between atoms: _288  and  _290
REMARK  123  A    between atoms: _290  and  _291
REMARK  124  A    between atoms: _290  and  _293
REMARK  125  A    between atoms: _293  and  _294
REMARK  126  A    between atoms: _297  and  _298
REMARK  127  A    between atoms: _303  and  _305
REMARK  128  A    between atoms: _305  and  _306
REMARK  129  A    between atoms: _308  and  _310
REMARK  130  A    between atoms: _310  and  _311
REMARK  131  A    between atoms: _310  and  _313
REMARK  132  A    between atoms: _316  and  _318
REMARK  133  A    between atoms: _318  and  _319
REMARK  134  A    between atoms: _321  and  _323
REMARK  135  A    between atoms: _323  and  _324
REMARK  136  A    between atoms: _327  and  _329
REMARK  137  A    between atoms: _329  and  _330
REMARK  138  A    between atoms: _329  and  _332
REMARK  139  A    between atoms: _332  and  _333
REMARK  140  A    between atoms: _333  and  _334
REMARK  141  A    between atoms: _339  and  _341
REMARK  142  A    between atoms: _341  and  _342
REMARK  143  A    between atoms: _344  and  _346
REMARK  144  A    between atoms: _346  and  _347
REMARK  145  A    between atoms: _349  and  _351
REMARK  146  A    between atoms: _351  and  _352
REMARK  147  A    between atoms: _351  and  _354
REMARK  148  A    between atoms: _354  and  _355
REMARK  149  A    between atoms: _358  and  _360
REMARK  150  A    between atoms: _360  and  _361
REMARK  151  A    between atoms: _360  and  _363
REMARK  152  A    between atoms: _366  and  _368
REMARK  153  A    between atoms: _368  and  _369
REMARK  154  A    between atoms: _371  and  _373
REMARK  155  A    between atoms: _373  and  _374
REMARK  156  A    between atoms: _373  and  _376
REMARK  157  A    between atoms: _376  and  _377
REMARK  158  A    between atoms: _377  and  _378
REMARK  159  A    between atoms: _378  and  _379
REMARK  160  A    between atoms: _388  and  _390
REMARK  161  A    between atoms: _390  and  _391
REMARK  162  A    between atoms: _390  and  _393
REMARK  163  A    between atoms: _393  and  _394
REMARK  164  A    between atoms: _396  and  _398
REMARK  165  A    between atoms: _398  and  _399
REMARK  166  A    between atoms: _398  and  _401
REMARK  167  A    between atoms: _401  and  _402
REMARK  168  A    between atoms: _405  and  _407
REMARK  169  A    between atoms: _407  and  _408
REMARK  170  A    between atoms: _407  and  _410
REMARK  171  A    between atoms: _410  and  _411
REMARK  172  A    between atoms: _416  and  _417
REMARK  173  A    between atoms: _419  and  _421
REMARK  174  A    between atoms: _421  and  _422
REMARK  175  A    between atoms: _421  and  _424
REMARK  176  A    between atoms: _424  and  _425
REMARK  177  A    between atoms: _428  and  _430
REMARK  178  A    between atoms: _430  and  _431
REMARK  179  A    between atoms: _434  and  _436
REMARK  180  A    between atoms: _436  and  _437
REMARK  181  A    between atoms: _436  and  _439
REMARK  182  A    between atoms: _439  and  _440
REMARK  183  A    between atoms: _443  and  _445
REMARK  184  A    between atoms: _445  and  _446
REMARK  185  A    between atoms: _445  and  _448
REMARK  186  A    between atoms: _448  and  _449
REMARK  187  A    between atoms: _453  and  _454
REMARK  188  A    between atoms: _459  and  _461
REMARK  189  A    between atoms: _461  and  _462
REMARK  190  A    between atoms: _461  and  _464
REMARK  191  A    between atoms: _464  and  _465
REMARK  192  A    between atoms: _465  and  _466
REMARK  193  A    between atoms: _469  and  _471
REMARK  194  A    between atoms: _471  and  _472
REMARK  195  A    between atoms: _471  and  _474
REMARK  196  A    between atoms: _474  and  _475
REMARK  197  A    between atoms: _478  and  _480
REMARK  198  A    between atoms: _480  and  _481
REMARK  199  A    between atoms: _480  and  _483
REMARK  200  A    between atoms: _483  and  _484
REMARK  201  A    between atoms: _489  and  _491
REMARK  202  A    between atoms: _491  and  _492
REMARK  203  A    between atoms: _491  and  _494
REMARK  204  A    between atoms: _494  and  _495
REMARK  205  A    between atoms: _495  and  _496
REMARK  206  A    between atoms: _496  and  _497
REMARK  207  A    between atoms: _497  and  _498
REMARK  208  A    between atoms: _502  and  _504
REMARK  209  A    between atoms: _504  and  _505
REMARK  210  A    between atoms: _504  and  _507
REMARK  211  A    between atoms: _507  and  _508
REMARK                            x       y       z     vdW  Elec       q    Type
REMARK                         _______ _______ _______ _____ _____    ______ ____
ROOT
ATOM      1  C   SER A   4      34.671 -20.051   6.934  0.00  0.00    +0.243 C 
ATOM      2  N   THR A   5      34.750 -18.974   7.700  0.00  0.00    -0.295 N 
ATOM      3  H   THR A   5      34.189 -18.943   8.575  0.00  0.00    +0.150 HD
ATOM      4  O   SER A   4      35.322 -20.165   5.882  0.00  0.00    -0.273 OA
ENDROOT
BRANCH   2   5
ATOM      5  CA  THR A   5      35.590 -17.831   7.367  0.00  0.00    +0.176 C 
BRANCH   5   6
ATOM      6  C   THR A   5      37.084 -18.083   7.466  0.00  0.00    +0.243 C 
ATOM      7  N   ARG A   6      37.487 -19.186   8.105  0.00  0.00    -0.298 N 
ATOM      8  H   ARG A   6      36.786 -19.821   8.537  0.00  0.00    +0.150 HD
ATOM      9  O   THR A   5      37.867 -17.255   7.013  0.00  0.00    -0.273 OA
BRANCH   7  10
ATOM     10  CA  ARG A   6      38.919 -19.504   8.198  0.00  0.00    +0.137 C 
BRANCH  10  11
ATOM     11  C   ARG A   6      39.080 -20.986   7.881  0.00  0.00    +0.227 C 
ATOM     12  O   ARG A   6      39.294 -21.807   8.783  0.00  0.00    -0.286 OA
ENDBRANCH  10  11
BRANCH  10  13
ATOM     13  CB  ARG A   6      39.469 -19.187   9.598  0.00  0.00    +0.031 C 
BRANCH  13  14
ATOM     14  CG  ARG A   6      39.254 -17.739   9.996  0.00  0.00    +0.045 C 
BRANCH  14  15
ATOM     15  CD  ARG A   6      39.994 -17.384  11.309  0.00  0.00    +0.174 C 
BRANCH  15  16
ATOM     16  NE  ARG A   6      39.504 -16.085  11.739  0.00  0.00    -0.265 N 
ATOM     17  CZ  ARG A   6      38.502 -15.911  12.586  0.00  0.00    +0.342 C 
ATOM     18  NH2 ARG A   6      37.938 -16.953  13.205  0.00  0.00    -0.292 N 
ATOM     19 HH21 ARG A   6      37.151 -16.800  13.868  0.00  0.00    +0.255 HD
ATOM     20 HH22 ARG A   6      38.286 -17.916  13.024  0.00  0.00    +0.255 HD
ATOM     21  NH1 ARG A   6      37.884 -14.739  12.588  0.00  0.00    -0.292 N 
ATOM     22 HH11 ARG A   6      37.093 -14.570  13.241  0.00  0.00    +0.255 HD
ATOM     23 HH12 ARG A   6      38.190 -13.989  11.936  0.00  0.00    +0.255 HD
ATOM     24  HE  ARG A   6      39.971 -15.238  11.357  0.00  0.00    +0.259 HD
ENDBRANCH  15  16
ENDBRANCH  14  15
ENDBRANCH  13  14
ENDBRANCH  10  13
ENDBRANCH   7  10
ENDBRANCH   5   6
BRANCH   5  25
ATOM     25  CB  THR A   5      35.221 -16.643   8.234  0.00  0.00    +0.137 C 
ATOM     26  CG2 THR A   5      33.793 -16.152   7.928  0.00  0.00    +0.034 C 
BRANCH  25  27
ATOM     27  OG1 THR A   5      35.262 -17.067   9.599  0.00  0.00    -0.382 OA
ATOM     28  HG1 THR A   5      35.024 -16.307  10.187  0.00  0.00    +0.210 HD
ENDBRANCH  25  27
ENDBRANCH   5  25
ENDBRANCH   2   5
BRANCH   1  29
ATOM     29  CA  SER A   4      33.727 -21.150   7.395  0.00  0.00    +0.178 C 
BRANCH  29  32
ATOM     30  C   PRO A   3      34.664 -21.473   9.633  0.00  0.00    +0.241 C 
ATOM     31  O   PRO A   3      35.785 -21.723   9.218  0.00  0.00    -0.273 OA
ATOM     32  N   SER A   4      33.639 -21.131   8.863  0.00  0.00    -0.295 N 
ATOM     33  H   SER A   4      32.746 -20.841   9.311  0.00  0.00    +0.150 HD
BRANCH  30  39
ATOM     34  C   GLY A   2      33.749 -23.455  12.314  0.00  0.00    +0.246 C 
ATOM     35  N   PRO A   3      34.656 -22.491  12.075  0.00  0.00    -0.272 N 
ATOM     36  CD  PRO A   3      35.939 -22.328  12.798  0.00  0.00    +0.094 C 
ATOM     37  CG  PRO A   3      36.532 -21.050  12.153  0.00  0.00    +0.024 C 
ATOM     38  CB  PRO A   3      35.281 -20.268  11.738  0.00  0.00    +0.031 C 
ATOM     39  CA  PRO A   3      34.432 -21.385  11.116  0.00  0.00    +0.152 C 
ATOM     40  O   GLY A   2      32.781 -23.652  11.562  0.00  0.00    -0.273 OA
BRANCH  34  41
ATOM     41  CA  GLY A   2      34.061 -24.456  13.432  0.00  0.00    +0.176 C 
BRANCH  41  44
ATOM     42  C   VAL A   1      32.479 -25.491  15.018  0.00  0.00    +0.238 C 
ATOM     43  O   VAL A   1      33.199 -25.238  15.995  0.00  0.00    -0.274 OA
ATOM     44  N   GLY A   2      32.797 -25.118  13.768  0.00  0.00    -0.296 N 
ATOM     45  H   GLY A   2      32.117 -25.307  13.005  0.00  0.00    +0.150 HD
BRANCH  42  46
ATOM     46  CA  VAL A   1      31.144 -26.222  15.188  0.00  0.00    +0.145 C 
BRANCH  46  47
ATOM     47  CB  VAL A   1      30.110 -25.274  15.864  0.00  0.00    +0.025 C 
ATOM     48  CG2 VAL A   1      28.868 -26.026  16.296  0.00  0.00    +0.002 C 
ATOM     49  CG1 VAL A   1      29.743 -24.164  14.885  0.00  0.00    +0.002 C 
ENDBRANCH  46  47
BRANCH  46  50
ATOM     50  N   VAL A   1      31.422 -27.391  16.049  0.00  0.00    -0.238 NA
ATOM     51  H   VAL A   1      31.888 -27.239  16.966  0.00  0.00    +0.142 HD
ENDBRANCH  46  50
ENDBRANCH  42  46
ENDBRANCH  41  44
ENDBRANCH  34  41
ENDBRANCH  30  39
ENDBRANCH  29  32
BRANCH  29  52
ATOM     52  CB  SER A   4      32.331 -20.894   6.817  0.00  0.00    +0.166 C 
BRANCH  52  53
ATOM     53  OG  SER A   4      32.423 -20.743   5.403  0.00  0.00    -0.380 OA
ATOM     54  H   SER A   4      32.798 -21.570   5.008  0.00  0.00    +0.211 HD
ENDBRANCH  52  53
ENDBRANCH  29  52
ENDBRANCH   1  29
TORSDOF 20
REMARK  Name = ../refined-set-2016/1x1z/1x1z_pocket.pdb
REMARK  211 active torsions:
REMARK  status: ('A' for Active; 'I' for Inactive)
REMARK    1  A    between atoms: _1  and  _3
REMARK    2  A    between atoms: _3  and  _4
REMARK    3  A    between atoms: _3  and  _6
REMARK    4  A    between atoms: _6  and  _7
REMARK    5  A    between atoms: _10  and  _12
REMARK    6  A    between atoms: _12  and  _13
REMARK    7  A    between atoms: _12  and  _15
REMARK    8  A    between atoms: _15  and  _16
REMARK    9  A    between atoms: _19  and  _21
REMARK   10  A    between atoms: _21  and  _22
REMARK   11  A    between atoms: _25  and  _27
REMARK   12  A    between atoms: _27  and  _28
REMARK   13  A    between atoms: _27  and  _30
REMARK   14  A    between atoms: _30  and  _31
REMARK   15  A    between atoms: _31  and  _32
REMARK   16  A    between atoms: _34  and  _36
REMARK   17  A    between atoms: _36  and  _37
REMARK   18  A    between atoms: _36  and  _39
REMARK   19  A    between atoms: _39  and  _40
REMARK   20  A    between atoms: _43  and  _45
REMARK   21  A    between atoms: _45  and  _46
REMARK   22  A    between atoms: _45  and  _48
REMARK   23  A    between atoms: _48  and  _49
REMARK   24  A    between atoms: _49  and  _50
REMARK   25  A    between atoms: _50  and  _51
REMARK   26  A    between atoms: _51  and  _52
REMARK   27  A    between atoms: _56  and  _58
REMARK   28  A    between atoms: _58  and  _59
REMARK   29  A    between atoms: _58  and  _61
REMARK   30  A    between atoms: _61  and  _62
REMARK   31  A    between atoms: _65  and  _67
REMARK   32  A    between atoms: _67  and  _68
REMARK   33  A    between atoms: _70  and  _72
REMARK   34  A    between atoms: _72  and  _73
REMARK   35  A    between atoms: _72  and  _75
REMARK   36  A    between atoms: _75  and  _76
REMARK   37  A    between atoms: _81  and  _82
REMARK   38  A    between atoms: _85  and  _86
REMARK   39  A    between atoms: _91  and  _93
REMARK   40  A    between atoms: _93  and  _94
REMARK   41  A    between atoms: _93  and  _96
REMARK   42  A    between atoms: _96  and  _97
REMARK   43  A    between atoms: _100  and  _102
REMARK   44  A    between atoms: _102  and  _103
REMARK   45  A    between atoms: _102  and  _105
REMARK   46  A    between atoms: _105  and  _106
REMARK   47  A    between atoms: _109  and  _111
REMARK   48  A    between atoms: _111  and  _112
REMARK   49  A    between atoms: _111  and  _114
REMARK   50  A    between atoms: _114  and  _115
REMARK   51  A    between atoms: _121  and  _123
REMARK   52  A    between atoms: _123  and  _124
REMARK   53  A    between atoms: _123  and  _126
REMARK   54  A    between atoms: _126  and  _127
REMARK   55  A    between atoms: _127  and  _128
REMARK   56  A    between atoms: _128  and  _129
REMARK   57  A    between atoms: _129  and  _130
REMARK   58  A    between atoms: _134  and  _136
REMARK   59  A    between atoms: _136  and  _137
REMARK   60  A    between atoms: _136  and  _139
REMARK   61  A    between atoms: _139  and  _140
REMARK   62  A    between atoms: _143  and  _145
REMARK   63  A    between atoms: _145  and  _146
REMARK   64  A    between atoms: _145  and  _148
REMARK   65  A    between atoms: _148  and  _149
REMARK   66  A    between atoms: _154  and  _156
REMARK   67  A    between atoms: _156  and  _157
REMARK   68  A    between atoms: _156  and  _159
REMARK   69  A    between atoms: _159  and  _160
REMARK   70  A    between atoms: _163  and  _165
REMARK   71  A    between atoms: _165  and  _166
REMARK   72  A    between atoms: _165  and  _168
REMARK   73  A    between atoms: _168  and  _169
REMARK   74  A    between atoms: _172  and  _174
REMARK   75  A    between atoms: _174  and  _175
REMARK   76  A    between atoms: _174  and  _177
REMARK   77  A    between atoms: _177  and  _178
REMARK   78  A    between atoms: _178  and  _179
REMARK   79  A    between atoms: _182  and  _184
REMARK   80  A    between atoms: _184  and  _185
REMARK   81  A    between atoms: _184  and  _187
REMARK   82  A    between atoms: _187  and  _188
REMARK   83  A    between atoms: _188  and  _189
REMARK   84  A    between atoms: _191  and  _193
REMARK   85  A    between atoms: _193  and  _194
REMARK   86  A    between atoms: _193  and  _196
REMARK   87  A    between atoms: _196  and  _197
REMARK   88  A    between atoms: _199  and  _201
REMARK   89  A    between atoms: _201  and  _202
REMARK   90  A    between atoms: _201  and  _204
REMARK   91  A    between atoms: _204  and  _205
REMARK   92  A    between atoms: _210  and  _212
REMARK   93  A    between atoms: _212  and  _213
REMARK   94  A    between atoms: _216  and  _218
REMARK   95  A    between atoms: _218  and  _219
REMARK   96  A    between atoms: _218  and  _221
REMARK   97  A    between atoms: _221  and  _222
REMARK   98  A    between atoms: _225  and  _227
REMARK   99  A    between atoms: _227  and  _228
REMARK  100  A    between atoms: _227  and  _230
REMARK  101  A    between atoms: _233  and  _235
REMARK  102  A    between atoms: _235  and  _236
REMARK  103  A    between atoms: _239  and  _240
REMARK  104  A    between atoms: _245  and  _247
REMARK  105  A    between atoms: _247  and  _248
REMARK  106  A    between atoms: _247  and  _250
REMARK  107  A    between atoms: _250  and  _251
REMARK  108  A    between atoms: _253  and  _255
REMARK  109  A    between atoms: _255  and  _256
REMARK  110  A    between atoms: _255  and  _258
REMARK  111  A    between atoms: _258  and  _259
REMARK  112  A    between atoms: _262  and  _264
REMARK  113  A    between atoms: _264  and  _265
REMARK  114  A    between atoms: _264  and  _267
REMARK  115  A    between atoms: _267  and  _268
REMARK  116  A    between atoms: _268  and  _269
REMARK  117  A    between atoms: _269  and  _270
REMARK  118  A    between atoms: _279  and  _281
REMARK  119  A    between atoms: _281  and  _282
REMARK  120  A    between atoms: _281  and  _284
REMARK  121  A    between atoms: _284  and  _285
REMARK  122  A    between atoms: _288  and  _290
REMARK  123  A    between atoms: _290  and  _291
REMARK  124  A    between atoms: _290  and  _293
REMARK  125  A    between atoms: _293  and  _294
REMARK  126  A    between atoms: _297  and  _298
REMARK  127  A    between atoms: _303  and  _305
REMARK  128  A    between atoms: _305  and  _306
REMARK  129  A    between atoms: _308  and  _310
REMARK  130  A    between atoms: _310  and  _311
REMARK  131  A    between atoms: _310  and  _313
REMARK  132  A    between atoms: _316  and  _318
REMARK  133  A    between atoms: _318  and  _319
REMARK  134  A    between atoms: _321  and  _323
REMARK  135  A    between atoms: _323  and  _324
REMARK  136  A    between atoms: _327  and  _329
REMARK  137  A    between atoms: _329  and  _330
REMARK  138  A    between atoms: _329  and  _332
REMARK  139  A    between atoms: _332  and  _333
REMARK  140  A    between atoms: _333  and  _334
REMARK  141  A    between atoms: _339  and  _341
REMARK  142  A    between atoms: _341  and  _342
REMARK  143  A    between atoms: _344  and  _346
REMARK  144  A    between atoms: _346  and  _347
REMARK  145  A    between atoms: _349  and  _351
REMARK  146  A    between atoms: _351  and  _352
REMARK  147  A    between atoms: _351  and  _354
REMARK  148  A    between atoms: _354  and  _355
REMARK  149  A    between atoms: _358  and  _360
REMARK  150  A    between atoms: _360  and  _361
REMARK  151  A    between atoms: _360  and  _363
REMARK  152  A    between atoms: _366  and  _368
REMARK  153  A    between atoms: _368  and  _369
REMARK  154  A    between atoms: _371  and  _373
REMARK  155  A    between atoms: _373  and  _374
REMARK  156  A    between atoms: _373  and  _376
REMARK  157  A    between atoms: _376  and  _377
REMARK  158  A    between atoms: _377  and  _378
REMARK  159  A    between atoms: _378  and  _379
REMARK  160  A    between atoms: _388  and  _390
REMARK  161  A    between atoms: _390  and  _391
REMARK  162  A    between atoms: _390  and  _393
REMARK  163  A    between atoms: _393  and  _394
REMARK  164  A    between atoms: _396  and  _398
REMARK  165  A    between atoms: _398  and  _399
REMARK  166  A    between atoms: _398  and  _401
REMARK  167  A    between atoms: _401  and  _402
REMARK  168  A    between atoms: _405  and  _407
REMARK  169  A    between atoms: _407  and  _408
REMARK  170  A    between atoms: _407  and  _410
REMARK  171  A    between atoms: _410  and  _411
REMARK  172  A    between atoms: _416  and  _417
REMARK  173  A    between atoms: _419  and  _421
REMARK  174  A    between atoms: _421  and  _422
REMARK  175  A    between atoms: _421  and  _424
REMARK  176  A    between atoms: _424  and  _425
REMARK  177  A    between atoms: _428  and  _430
REMARK  178  A    between atoms: _430  and  _431
REMARK  179  A    between atoms: _434  and  _436
REMARK  180  A    between atoms: _436  and  _437
REMARK  181  A    between atoms: _436  and  _439
REMARK  182  A    between atoms: _439  and  _440
REMARK  183  A    between atoms: _443  and  _445
REMARK  184  A    between atoms: _445  and  _446
REMARK  185  A    between atoms: _445  and  _448
REMARK  186  A    between atoms: _448  and  _449
REMARK  187  A    between atoms: _453  and  _454
REMARK  188  A    between atoms: _459  and  _461
REMARK  189  A    between atoms: _461  and  _462
REMARK  190  A    between atoms: _461  and  _464
REMARK  191  A    between atoms: _464  and  _465
REMARK  192  A    between atoms: _465  and  _466
REMARK  193  A    between atoms: _469  and  _471
REMARK  194  A    between atoms: _471  and  _472
REMARK  195  A    between atoms: _471  and  _474
REMARK  196  A    between atoms: _474  and  _475
REMARK  197  A    between atoms: _478  and  _480
REMARK  198  A    between atoms: _480  and  _481
REMARK  199  A    between atoms: _480  and  _483
REMARK  200  A    between atoms: _483  and  _484
REMARK  201  A    between atoms: _489  and  _491
REMARK  202  A    between atoms: _491  and  _492
REMARK  203  A    between atoms: _491  and  _494
REMARK  204  A    between atoms: _494  and  _495
REMARK  205  A    between atoms: _495  and  _496
REMARK  206  A    between atoms: _496  and  _497
REMARK  207  A    between atoms: _497  and  _498
REMARK  208  A    between atoms: _502  and  _504
REMARK  209  A    between atoms: _504  and  _505
REMARK  210  A    between atoms: _504  and  _507
REMARK  211  A    between atoms: _507  and  _508
REMARK                            x       y       z     vdW  Elec       q    Type
REMARK                         _______ _______ _______ _____ _____    ______ ____
ROOT
ATOM      1  CA  VAL A   5      28.952 -19.051   4.664  0.00  0.00    +0.149 C 
ENDROOT
BRANCH   1   3
ATOM      2  C   GLY A   4      29.935 -18.083   6.684  0.00  0.00    +0.243 C 
ATOM      3  N   VAL A   5      29.051 -18.897   6.117  0.00  0.00    -0.297 N 
ATOM      4  H   VAL A   5      28.408 -19.443   6.725  0.00  0.00    +0.150 HD
ATOM      5  O   GLY A   4      30.732 -17.390   6.067  0.00  0.00    -0.273 OA
BRANCH   2   6
ATOM      6  CA  GLY A   4      29.944 -18.010   8.209  0.00  0.00    +0.176 C 
BRANCH   6   9
ATOM      7  C   PRO A   3      29.686 -20.137   9.392  0.00  0.00    +0.241 C 
ATOM      8  O   PRO A   3      30.927 -20.285   9.533  0.00  0.00    -0.273 OA
ATOM      9  N   GLY A   4      29.137 -19.067   8.818  0.00  0.00    -0.295 N 
ATOM     10  H   GLY A   4      28.101 -18.981   8.803  0.00  0.00    +0.150 HD
BRANCH   7  16
ATOM     11  C   SER A   2      29.472 -23.439   9.481  0.00  0.00    +0.246 C 
ATOM     12  N   PRO A   3      29.389 -22.386  10.301  0.00  0.00    -0.272 N 
ATOM     13  CD  PRO A   3      29.769 -22.392  11.734  0.00  0.00    +0.094 C 
ATOM     14  CG  PRO A   3      29.214 -21.049  12.260  0.00  0.00    +0.024 C 
ATOM     15  CB  PRO A   3      28.074 -20.688  11.257  0.00  0.00    +0.031 C 
ATOM     16  CA  PRO A   3      28.673 -21.151   9.940  0.00  0.00    +0.152 C 
ATOM     17  O   SER A   2      28.917 -23.463   8.363  0.00  0.00    -0.273 OA
BRANCH  11  18
ATOM     18  CA  SER A   2      30.265 -24.644   9.943  0.00  0.00    +0.178 C 
BRANCH  18  21
ATOM     19  C   ILE A   1      29.809 -26.714  11.093  0.00  0.00    +0.238 C 
ATOM     20  O   ILE A   1      30.540 -26.368  12.034  0.00  0.00    -0.274 OA
ATOM     21  N   SER A   2      29.519 -25.891  10.075  0.00  0.00    -0.295 N 
ATOM     22  H   SER A   2      28.775 -26.137   9.391  0.00  0.00    +0.150 HD
BRANCH  19  23
ATOM     23  CA  ILE A   1      29.166 -28.095  11.039  0.00  0.00    +0.145 C 
BRANCH  23  24
ATOM     24  N   ILE A   1      30.009 -29.010  11.797  0.00  0.00    -0.238 NA
ATOM     25  H   ILE A   1      30.133 -28.875  12.821  0.00  0.00    +0.142 HD
ENDBRANCH  23  24
BRANCH  23  26
ATOM     26  CB  ILE A   1      27.702 -28.077  11.529  0.00  0.00    +0.025 C 
ATOM     27  CG2 ILE A   1      27.170 -29.519  11.532  0.00  0.00    +0.002 C 
BRANCH  26  28
ATOM     28  CG1 ILE A   1      27.569 -27.489  12.946  0.00  0.00    +0.002 C 
ATOM     29  CD1 ILE A   1      26.113 -27.493  13.467  0.00  0.00    +0.000 C 
ENDBRANCH  26  28
ENDBRANCH  23  26
ENDBRANCH  19  23
ENDBRANCH  18  21
BRANCH  18  30
ATOM     30  CB  SER A   2      31.415 -24.890   8.939  0.00  0.00    +0.166 C 
BRANCH  30  31
ATOM     31  OG  SER A   2      32.251 -23.739   8.818  0.00  0.00    -0.380 OA
ATOM     32  H   SER A   2      32.643 -23.523   9.701  0.00  0.00    +0.211 HD
ENDBRANCH  30  31
ENDBRANCH  18  30
ENDBRANCH  11  18
ENDBRANCH   7  16
ENDBRANCH   6   9
ENDBRANCH   2   6
ENDBRANCH   1   3
BRANCH   1  33
ATOM     33  C   VAL A   5      28.023 -17.982   4.116  0.00  0.00    +0.241 C 
ATOM     34  O   VAL A   5      26.899 -17.790   4.626  0.00  0.00    -0.273 OA
ATOM     35  N   GLY A   6      28.483 -17.289   3.082  0.00  0.00    -0.295 N 
ATOM     36  H   GLY A   6      29.444 -17.460   2.723  0.00  0.00    +0.150 HD
BRANCH  35  37
ATOM     37  CA  GLY A   6      27.634 -16.289   2.455  0.00  0.00    +0.176 C 
BRANCH  37  38
ATOM     38  C   GLY A   6      27.856 -14.910   3.005  0.00  0.00    +0.243 C 
ATOM     39  N   ALA A   7      26.938 -14.461   3.851  0.00  0.00    -0.297 N 
ATOM     40  H   ALA A   7      26.143 -15.069   4.135  0.00  0.00    +0.150 HD
ATOM     41  O   GLY A   6      28.864 -14.254   2.703  0.00  0.00    -0.273 OA
BRANCH  39  42
ATOM     42  CA  ALA A   7      27.053 -13.123   4.372  0.00  0.00    +0.149 C 
ATOM     43  CB  ALA A   7      25.899 -12.835   5.361  0.00  0.00    +0.031 C 
BRANCH  42  44
ATOM     44  C   ALA A   7      28.393 -12.769   4.996  0.00  0.00    +0.241 C 
ATOM     45  N   GLN A   8      28.950 -13.676   5.779  0.00  0.00    -0.297 N 
ATOM     46  H   GLN A   8      28.477 -14.590   5.932  0.00  0.00    +0.150 HD
ATOM     47  O   ALA A   7      28.903 -11.677   4.808  0.00  0.00    -0.273 OA
BRANCH  45  48
ATOM     48  CA  GLN A   8      30.231 -13.398   6.432  0.00  0.00    +0.149 C 
BRANCH  48  49
ATOM     49  C   GLN A   8      31.462 -13.624   5.555  0.00  0.00    +0.241 C 
ATOM     50  O   GLN A   8      32.579 -13.366   5.973  0.00  0.00    -0.273 OA
ATOM     51  N   GLY A   9      31.227 -14.121   4.345  0.00  0.00    -0.295 N 
ATOM     52  H   GLY A   9      30.258 -14.382   4.071  0.00  0.00    +0.150 HD
BRANCH  51  53
ATOM     53  CA  GLY A   9      32.320 -14.302   3.402  0.00  0.00    +0.176 C 
BRANCH  53  54
ATOM     54  C   GLY A   9      32.740 -15.715   3.087  0.00  0.00    +0.243 C 
ATOM     55  N   GLY A  10      32.275 -16.686   3.849  0.00  0.00    -0.296 N 
ATOM     56  H   GLY A  10      31.627 -16.466   4.632  0.00  0.00    +0.150 HD
ATOM     57  O   GLY A   9      33.514 -15.923   2.144  0.00  0.00    -0.273 OA
BRANCH  55  58
ATOM     58  CA  GLY A  10      32.666 -18.060   3.597  0.00  0.00    +0.163 C 
BRANCH  58  59
ATOM     59  C   GLY A  10      32.085 -18.660   2.332  0.00  0.00    +0.229 C 
ATOM     60  O   GLY A  10      31.008 -18.266   1.886  0.00  0.00    -0.286 OA
ENDBRANCH  58  59
ENDBRANCH  55  58
ENDBRANCH  53  54
ENDBRANCH  51  53
ENDBRANCH  48  49
BRANCH  48  61
ATOM     61  CB  GLN A   8      30.325 -14.274   7.686  0.00  0.00    +0.039 C 
BRANCH  61  62
ATOM     62  CG  GLN A   8      29.293 -13.922   8.740  0.00  0.00    +0.087 C 
BRANCH  62  63
ATOM     63  CD  GLN A   8      29.445 -14.823   9.977  0.00  0.00    +0.219 C 
ATOM     64  OE1 GLN A   8      30.529 -14.865  10.578  0.00  0.00    -0.275 OA
ATOM     65  NE2 GLN A   8      28.392 -15.558  10.353  0.00  0.00    -0.329 N 
ATOM     66 HE21 GLN A   8      28.467 -16.191  11.174  0.00  0.00    +0.145 HD
ATOM     67 HE22 GLN A   8      27.499 -15.496   9.824  0.00  0.00    +0.145 HD
ENDBRANCH  62  63
ENDBRANCH  61  62
ENDBRANCH  48  61
ENDBRANCH  45  48
ENDBRANCH  42  44
ENDBRANCH  39  42
ENDBRANCH  37  38
ENDBRANCH  35  37
ENDBRANCH   1  33
BRANCH   1  68
ATOM     68  CB  VAL A   5      28.360 -20.423   4.319  0.00  0.00    +0.027 C 
ATOM     69  CG2 VAL A   5      29.292 -21.559   4.838  0.00  0.00    +0.002 C 
ATOM     70  CG1 VAL A   5      28.158 -20.558   2.800  0.00  0.00    +0.002 C 
ENDBRANCH   1  68
TORSDOF 27
REMARK  Name = ../refined-set-2016/1x1z/1x1z_pocket.pdb
REMARK  211 active torsions:
REMARK  status: ('A' for Active; 'I' for Inactive)
REMARK    1  A    between atoms: _1  and  _3
REMARK    2  A    between atoms: _3  and  _4
REMARK    3  A    between atoms: _3  and  _6
REMARK    4  A    between atoms: _6  and  _7
REMARK    5  A    between atoms: _10  and  _12
REMARK    6  A    between atoms: _12  and  _13
REMARK    7  A    between atoms: _12  and  _15
REMARK    8  A    between atoms: _15  and  _16
REMARK    9  A    between atoms: _19  and  _21
REMARK   10  A    between atoms: _21  and  _22
REMARK   11  A    between atoms: _25  and  _27
REMARK   12  A    between atoms: _27  and  _28
REMARK   13  A    between atoms: _27  and  _30
REMARK   14  A    between atoms: _30  and  _31
REMARK   15  A    between atoms: _31  and  _32
REMARK   16  A    between atoms: _34  and  _36
REMARK   17  A    between atoms: _36  and  _37
REMARK   18  A    between atoms: _36  and  _39
REMARK   19  A    between atoms: _39  and  _40
REMARK   20  A    between atoms: _43  and  _45
REMARK   21  A    between atoms: _45  and  _46
REMARK   22  A    between atoms: _45  and  _48
REMARK   23  A    between atoms: _48  and  _49
REMARK   24  A    between atoms: _49  and  _50
REMARK   25  A    between atoms: _50  and  _51
REMARK   26  A    between atoms: _51  and  _52
REMARK   27  A    between atoms: _56  and  _58
REMARK   28  A    between atoms: _58  and  _59
REMARK   29  A    between atoms: _58  and  _61
REMARK   30  A    between atoms: _61  and  _62
REMARK   31  A    between atoms: _65  and  _67
REMARK   32  A    between atoms: _67  and  _68
REMARK   33  A    between atoms: _70  and  _72
REMARK   34  A    between atoms: _72  and  _73
REMARK   35  A    between atoms: _72  and  _75
REMARK   36  A    between atoms: _75  and  _76
REMARK   37  A    between atoms: _81  and  _82
REMARK   38  A    between atoms: _85  and  _86
REMARK   39  A    between atoms: _91  and  _93
REMARK   40  A    between atoms: _93  and  _94
REMARK   41  A    between atoms: _93  and  _96
REMARK   42  A    between atoms: _96  and  _97
REMARK   43  A    between atoms: _100  and  _102
REMARK   44  A    between atoms: _102  and  _103
REMARK   45  A    between atoms: _102  and  _105
REMARK   46  A    between atoms: _105  and  _106
REMARK   47  A    between atoms: _109  and  _111
REMARK   48  A    between atoms: _111  and  _112
REMARK   49  A    between atoms: _111  and  _114
REMARK   50  A    between atoms: _114  and  _115
REMARK   51  A    between atoms: _121  and  _123
REMARK   52  A    between atoms: _123  and  _124
REMARK   53  A    between atoms: _123  and  _126
REMARK   54  A    between atoms: _126  and  _127
REMARK   55  A    between atoms: _127  and  _128
REMARK   56  A    between atoms: _128  and  _129
REMARK   57  A    between atoms: _129  and  _130
REMARK   58  A    between atoms: _134  and  _136
REMARK   59  A    between atoms: _136  and  _137
REMARK   60  A    between atoms: _136  and  _139
REMARK   61  A    between atoms: _139  and  _140
REMARK   62  A    between atoms: _143  and  _145
REMARK   63  A    between atoms: _145  and  _146
REMARK   64  A    between atoms: _145  and  _148
REMARK   65  A    between atoms: _148  and  _149
REMARK   66  A    between atoms: _154  and  _156
REMARK   67  A    between atoms: _156  and  _157
REMARK   68  A    between atoms: _156  and  _159
REMARK   69  A    between atoms: _159  and  _160
REMARK   70  A    between atoms: _163  and  _165
REMARK   71  A    between atoms: _165  and  _166
REMARK   72  A    between atoms: _165  and  _168
REMARK   73  A    between atoms: _168  and  _169
REMARK   74  A    between atoms: _172  and  _174
REMARK   75  A    between atoms: _174  and  _175
REMARK   76  A    between atoms: _174  and  _177
REMARK   77  A    between atoms: _177  and  _178
REMARK   78  A    between atoms: _178  and  _179
REMARK   79  A    between atoms: _182  and  _184
REMARK   80  A    between atoms: _184  and  _185
REMARK   81  A    between atoms: _184  and  _187
REMARK   82  A    between atoms: _187  and  _188
REMARK   83  A    between atoms: _188  and  _189
REMARK   84  A    between atoms: _191  and  _193
REMARK   85  A    between atoms: _193  and  _194
REMARK   86  A    between atoms: _193  and  _196
REMARK   87  A    between atoms: _196  and  _197
REMARK   88  A    between atoms: _199  and  _201
REMARK   89  A    between atoms: _201  and  _202
REMARK   90  A    between atoms: _201  and  _204
REMARK   91  A    between atoms: _204  and  _205
REMARK   92  A    between atoms: _210  and  _212
REMARK   93  A    between atoms: _212  and  _213
REMARK   94  A    between atoms: _216  and  _218
REMARK   95  A    between atoms: _218  and  _219
REMARK   96  A    between atoms: _218  and  _221
REMARK   97  A    between atoms: _221  and  _222
REMARK   98  A    between atoms: _225  and  _227
REMARK   99  A    between atoms: _227  and  _228
REMARK  100  A    between atoms: _227  and  _230
REMARK  101  A    between atoms: _233  and  _235
REMARK  102  A    between atoms: _235  and  _236
REMARK  103  A    between atoms: _239  and  _240
REMARK  104  A    between atoms: _245  and  _247
REMARK  105  A    between atoms: _247  and  _248
REMARK  106  A    between atoms: _247  and  _250
REMARK  107  A    between atoms: _250  and  _251
REMARK  108  A    between atoms: _253  and  _255
REMARK  109  A    between atoms: _255  and  _256
REMARK  110  A    between atoms: _255  and  _258
REMARK  111  A    between atoms: _258  and  _259
REMARK  112  A    between atoms: _262  and  _264
REMARK  113  A    between atoms: _264  and  _265
REMARK  114  A    between atoms: _264  and  _267
REMARK  115  A    between atoms: _267  and  _268
REMARK  116  A    between atoms: _268  and  _269
REMARK  117  A    between atoms: _269  and  _270
REMARK  118  A    between atoms: _279  and  _281
REMARK  119  A    between atoms: _281  and  _282
REMARK  120  A    between atoms: _281  and  _284
REMARK  121  A    between atoms: _284  and  _285
REMARK  122  A    between atoms: _288  and  _290
REMARK  123  A    between atoms: _290  and  _291
REMARK  124  A    between atoms: _290  and  _293
REMARK  125  A    between atoms: _293  and  _294
REMARK  126  A    between atoms: _297  and  _298
REMARK  127  A    between atoms: _303  and  _305
REMARK  128  A    between atoms: _305  and  _306
REMARK  129  A    between atoms: _308  and  _310
REMARK  130  A    between atoms: _310  and  _311
REMARK  131  A    between atoms: _310  and  _313
REMARK  132  A    between atoms: _316  and  _318
REMARK  133  A    between atoms: _318  and  _319
REMARK  134  A    between atoms: _321  and  _323
REMARK  135  A    between atoms: _323  and  _324
REMARK  136  A    between atoms: _327  and  _329
REMARK  137  A    between atoms: _329  and  _330
REMARK  138  A    between atoms: _329  and  _332
REMARK  139  A    between atoms: _332  and  _333
REMARK  140  A    between atoms: _333  and  _334
REMARK  141  A    between atoms: _339  and  _341
REMARK  142  A    between atoms: _341  and  _342
REMARK  143  A    between atoms: _344  and  _346
REMARK  144  A    between atoms: _346  and  _347
REMARK  145  A    between atoms: _349  and  _351
REMARK  146  A    between atoms: _351  and  _352
REMARK  147  A    between atoms: _351  and  _354
REMARK  148  A    between atoms: _354  and  _355
REMARK  149  A    between atoms: _358  and  _360
REMARK  150  A    between atoms: _360  and  _361
REMARK  151  A    between atoms: _360  and  _363
REMARK  152  A    between atoms: _366  and  _368
REMARK  153  A    between atoms: _368  and  _369
REMARK  154  A    between atoms: _371  and  _373
REMARK  155  A    between atoms: _373  and  _374
REMARK  156  A    between atoms: _373  and  _376
REMARK  157  A    between atoms: _376  and  _377
REMARK  158  A    between atoms: _377  and  _378
REMARK  159  A    between atoms: _378  and  _379
REMARK  160  A    between atoms: _388  and  _390
REMARK  161  A    between atoms: _390  and  _391
REMARK  162  A    between atoms: _390  and  _393
REMARK  163  A    between atoms: _393  and  _394
REMARK  164  A    between atoms: _396  and  _398
REMARK  165  A    between atoms: _398  and  _399
REMARK  166  A    between atoms: _398  and  _401
REMARK  167  A    between atoms: _401  and  _402
REMARK  168  A    between atoms: _405  and  _407
REMARK  169  A    between atoms: _407  and  _408
REMARK  170  A    between atoms: _407  and  _410
REMARK  171  A    between atoms: _410  and  _411
REMARK  172  A    between atoms: _416  and  _417
REMARK  173  A    between atoms: _419  and  _421
REMARK  174  A    between atoms: _421  and  _422
REMARK  175  A    between atoms: _421  and  _424
REMARK  176  A    between atoms: _424  and  _425
REMARK  177  A    between atoms: _428  and  _430
REMARK  178  A    between atoms: _430  and  _431
REMARK  179  A    between atoms: _434  and  _436
REMARK  180  A    between atoms: _436  and  _437
REMARK  181  A    between atoms: _436  and  _439
REMARK  182  A    between atoms: _439  and  _440
REMARK  183  A    between atoms: _443  and  _445
REMARK  184  A    between atoms: _445  and  _446
REMARK  185  A    between atoms: _445  and  _448
REMARK  186  A    between atoms: _448  and  _449
REMARK  187  A    between atoms: _453  and  _454
REMARK  188  A    between atoms: _459  and  _461
REMARK  189  A    between atoms: _461  and  _462
REMARK  190  A    between atoms: _461  and  _464
REMARK  191  A    between atoms: _464  and  _465
REMARK  192  A    between atoms: _465  and  _466
REMARK  193  A    between atoms: _469  and  _471
REMARK  194  A    between atoms: _471  and  _472
REMARK  195  A    between atoms: _471  and  _474
REMARK  196  A    between atoms: _474  and  _475
REMARK  197  A    between atoms: _478  and  _480
REMARK  198  A    between atoms: _480  and  _481
REMARK  199  A    between atoms: _480  and  _483
REMARK  200  A    between atoms: _483  and  _484
REMARK  201  A    between atoms: _489  and  _491
REMARK  202  A    between atoms: _491  and  _492
REMARK  203  A    between atoms: _491  and  _494
REMARK  204  A    between atoms: _494  and  _495
REMARK  205  A    between atoms: _495  and  _496
REMARK  206  A    between atoms: _496  and  _497
REMARK  207  A    between atoms: _497  and  _498
REMARK  208  A    between atoms: _502  and  _504
REMARK  209  A    between atoms: _504  and  _505
REMARK  210  A    between atoms: _504  and  _507
REMARK  211  A    between atoms: _507  and  _508
REMARK                            x       y       z     vdW  Elec       q    Type
REMARK                         _______ _______ _______ _____ _____    ______ ____
ROOT
ATOM      1  C   ARG A   4      21.060 -14.593   4.341  0.00  0.00    +0.241 C 
ATOM      2  N   SER A   5      22.054 -15.280   3.806  0.00  0.00    -0.295 N 
ATOM      3  H   SER A   5      22.809 -15.650   4.419  0.00  0.00    +0.150 HD
ATOM      4  O   ARG A   4      20.133 -14.094   3.672  0.00  0.00    -0.273 OA
ENDROOT
BRANCH   2   5
ATOM      5  CA  SER A   5      22.110 -15.532   2.346  0.00  0.00    +0.178 C 
BRANCH   5   6
ATOM      6  C   SER A   5      20.834 -16.185   1.870  0.00  0.00    +0.243 C 
ATOM      7  N   ILE A   6      20.178 -16.944   2.747  0.00  0.00    -0.297 N 
ATOM      8  H   ILE A   6      20.583 -17.109   3.691  0.00  0.00    +0.150 HD
ATOM      9  O   SER A   5      20.461 -16.023   0.667  0.00  0.00    -0.273 OA
BRANCH   7  10
ATOM     10  CA  ILE A   6      18.906 -17.541   2.397  0.00  0.00    +0.149 C 
BRANCH  10  11
ATOM     11  C   ILE A   6      17.727 -16.721   2.942  0.00  0.00    +0.241 C 
ATOM     12  N   TYR A   7      17.714 -16.406   4.247  0.00  0.00    -0.297 N 
ATOM     13  H   TYR A   7      18.534 -16.585   4.861  0.00  0.00    +0.150 HD
ATOM     14  O   ILE A   6      16.812 -16.312   2.168  0.00  0.00    -0.273 OA
BRANCH  12  15
ATOM     15  CA  TYR A   7      16.489 -15.800   4.760  0.00  0.00    +0.153 C 
BRANCH  15  16
ATOM     16  C   TYR A   7      16.238 -14.338   4.464  0.00  0.00    +0.241 C 
ATOM     17  O   TYR A   7      15.120 -13.891   4.671  0.00  0.00    -0.273 OA
ATOM     18  N   LEU A   8      17.261 -13.626   3.995  0.00  0.00    -0.298 N 
ATOM     19  H   LEU A   8      18.204 -14.058   3.928  0.00  0.00    +0.150 HD
BRANCH  18  20
ATOM     20  CA  LEU A   8      17.063 -12.224   3.569  0.00  0.00    +0.137 C 
BRANCH  20  21
ATOM     21  C   LEU A   8      16.959 -12.141   2.049  0.00  0.00    +0.227 C 
ATOM     22  O   LEU A   8      16.751 -11.038   1.510  0.00  0.00    -0.286 OA
ENDBRANCH  20  21
BRANCH  20  23
ATOM     23  CB  LEU A   8      18.186 -11.295   4.048  0.00  0.00    +0.028 C 
BRANCH  23  24
ATOM     24  CG  LEU A   8      18.190 -11.154   5.570  0.00  0.00    +0.002 C 
ATOM     25  CD2 LEU A   8      16.802 -10.675   6.094  0.00  0.00    +0.000 C 
ATOM     26  CD1 LEU A   8      19.326 -10.204   5.953  0.00  0.00    +0.000 C 
ENDBRANCH  23  24
ENDBRANCH  20  23
ENDBRANCH  18  20
ENDBRANCH  15  16
BRANCH  15  27
ATOM     27  CB  TYR A   7      16.245 -16.138   6.277  0.00  0.00    +0.055 C 
BRANCH  27  28
ATOM     28  CG  TYR A   7      17.161 -15.445   7.305  0.00  0.00    -0.020 A 
ATOM     29  CD2 TYR A   7      18.082 -16.188   8.051  0.00  0.00    -0.001 A 
ATOM     30  CE2 TYR A   7      18.882 -15.549   8.977  0.00  0.00    +0.036 A 
ATOM     31  CZ  TYR A   7      18.783 -14.181   9.185  0.00  0.00    +0.134 A 
ATOM     32  CE1 TYR A   7      17.873 -13.418   8.468  0.00  0.00    +0.036 A 
ATOM     33  CD1 TYR A   7      17.080 -14.077   7.534  0.00  0.00    -0.001 A 
BRANCH  31  34
ATOM     34  OH  TYR A   7      19.599 -13.521  10.077  0.00  0.00    -0.506 OA
ATOM     35  HH  TYR A   7      20.544 -13.638   9.807  0.00  0.00    +0.292 HD
ENDBRANCH  31  34
ENDBRANCH  27  28
ENDBRANCH  15  27
ENDBRANCH  12  15
ENDBRANCH  10  11
BRANCH  10  36
ATOM     36  CB  ILE A   6      18.801 -18.986   2.955  0.00  0.00    +0.027 C 
ATOM     37  CG2 ILE A   6      17.356 -19.530   2.878  0.00  0.00    +0.002 C 
BRANCH  36  38
ATOM     38  CG1 ILE A   6      19.758 -19.874   2.173  0.00  0.00    +0.002 C 
ATOM     39  CD1 ILE A   6      19.975 -21.256   2.813  0.00  0.00    +0.000 C 
ENDBRANCH  36  38
ENDBRANCH  10  36
ENDBRANCH   7  10
ENDBRANCH   5   6
BRANCH   5  40
ATOM     40  CB  SER A   5      23.315 -16.428   1.997  0.00  0.00    +0.166 C 
BRANCH  40  41
ATOM     41  OG  SER A   5      24.488 -15.670   2.101  0.00  0.00    -0.380 OA
ATOM     42  H   SER A   5      24.579 -15.331   3.027  0.00  0.00    +0.211 HD
ENDBRANCH  40  41
ENDBRANCH   5  40
ENDBRANCH   2   5
BRANCH   1  43
ATOM     43  CA  ARG A   4      21.064 -14.354   5.846  0.00  0.00    +0.149 C 
BRANCH  43  45
ATOM     44  C   GLY A   3      20.956 -16.702   6.543  0.00  0.00    +0.243 C 
ATOM     45  N   ARG A   4      21.503 -15.490   6.678  0.00  0.00    -0.297 N 
ATOM     46  H   ARG A   4      22.253 -15.345   7.384  0.00  0.00    +0.150 HD
ATOM     47  O   GLY A   3      20.160 -17.015   5.622  0.00  0.00    -0.273 OA
BRANCH  44  48
ATOM     48  CA  GLY A   3      21.377 -17.791   7.531  0.00  0.00    +0.176 C 
BRANCH  48  50
ATOM     49  C   VAL A   2      22.299 -19.871   6.709  0.00  0.00    +0.241 C 
ATOM     50  N   GLY A   3      22.474 -18.599   7.059  0.00  0.00    -0.295 N 
ATOM     51  H   GLY A   3      23.423 -18.179   6.991  0.00  0.00    +0.150 HD
ATOM     52  O   VAL A   2      21.240 -20.493   6.833  0.00  0.00    -0.273 OA
BRANCH  49  53
ATOM     53  CA  VAL A   2      23.539 -20.565   6.186  0.00  0.00    +0.148 C 
BRANCH  53  56
ATOM     54  C   ILE A   1      24.980 -22.112   7.411  0.00  0.00    +0.238 C 
ATOM     55  O   ILE A   1      25.997 -21.420   7.211  0.00  0.00    -0.274 OA
ATOM     56  N   VAL A   2      23.759 -21.783   6.964  0.00  0.00    -0.297 N 
ATOM     57  H   VAL A   2      22.954 -22.406   7.175  0.00  0.00    +0.150 HD
BRANCH  54  58
ATOM     58  CA  ILE A   1      25.088 -23.416   8.226  0.00  0.00    +0.145 C 
BRANCH  58  59
ATOM     59  N   ILE A   1      26.211 -24.167   7.674  0.00  0.00    -0.238 NA
ATOM     60  H   ILE A   1      27.176 -23.874   7.929  0.00  0.00    +0.142 HD
ENDBRANCH  58  59
BRANCH  58  61
ATOM     61  CB  ILE A   1      25.407 -23.024   9.678  0.00  0.00    +0.025 C 
ATOM     62  CG2 ILE A   1      24.378 -21.961  10.217  0.00  0.00    +0.002 C 
BRANCH  61  63
ATOM     63  CG1 ILE A   1      25.384 -24.266  10.562  0.00  0.00    +0.002 C 
ATOM     64  CD1 ILE A   1      26.136 -24.067  11.906  0.00  0.00    +0.000 C 
ENDBRANCH  61  63
ENDBRANCH  58  61
ENDBRANCH  54  58
ENDBRANCH  53  56
BRANCH  53  65
ATOM     65  CB  VAL A   2      23.318 -20.895   4.680  0.00  0.00    +0.027 C 
ATOM     66  CG2 VAL A   2      24.546 -21.612   4.122  0.00  0.00    +0.002 C 
ATOM     67  CG1 VAL A   2      23.092 -19.603   3.877  0.00  0.00    +0.002 C 
ENDBRANCH  53  65
ENDBRANCH  49  53
ENDBRANCH  48  50
ENDBRANCH  44  48
ENDBRANCH  43  45
BRANCH  43  68
ATOM     68  CB  ARG A   4      21.923 -13.136   6.203  0.00  0.00    +0.033 C 
BRANCH  68  69
ATOM     69  CG  ARG A   4      21.537 -12.557   7.572  0.00  0.00    +0.045 C 
BRANCH  69  70
ATOM     70  CD  ARG A   4      22.607 -11.567   8.023  0.00  0.00    +0.174 C 
BRANCH  70  71
ATOM     71  NE  ARG A   4      23.832 -12.288   8.409  0.00  0.00    -0.265 N 
ATOM     72  CZ  ARG A   4      25.009 -11.715   8.639  0.00  0.00    +0.342 C 
ATOM     73  NH2 ARG A   4      26.029 -12.463   9.052  0.00  0.00    -0.292 N 
ATOM     74 HH21 ARG A   4      26.954 -12.025   9.235  0.00  0.00    +0.255 HD
ATOM     75 HH22 ARG A   4      25.901 -13.486   9.192  0.00  0.00    +0.255 HD
ATOM     76  NH1 ARG A   4      25.183 -10.389   8.513  0.00  0.00    -0.292 N 
ATOM     77 HH11 ARG A   4      26.115  -9.967   8.699  0.00  0.00    +0.255 HD
ATOM     78 HH12 ARG A   4      24.386  -9.785   8.229  0.00  0.00    +0.255 HD
ATOM     79  HE  ARG A   4      23.772 -13.321   8.509  0.00  0.00    +0.259 HD
ENDBRANCH  70  71
ENDBRANCH  69  70
ENDBRANCH  68  69
ENDBRANCH  43  68
ENDBRANCH   1  43
TORSDOF 32
REMARK  Name = ../refined-set-2016/1x1z/1x1z_pocket.pdb
REMARK  211 active torsions:
REMARK  status: ('A' for Active; 'I' for Inactive)
REMARK    1  A    between atoms: _1  and  _3
REMARK    2  A    between atoms: _3  and  _4
REMARK    3  A    between atoms: _3  and  _6
REMARK    4  A    between atoms: _6  and  _7
REMARK    5  A    between atoms: _10  and  _12
REMARK    6  A    between atoms: _12  and  _13
REMARK    7  A    between atoms: _12  and  _15
REMARK    8  A    between atoms: _15  and  _16
REMARK    9  A    between atoms: _19  and  _21
REMARK   10  A    between atoms: _21  and  _22
REMARK   11  A    between atoms: _25  and  _27
REMARK   12  A    between atoms: _27  and  _28
REMARK   13  A    between atoms: _27  and  _30
REMARK   14  A    between atoms: _30  and  _31
REMARK   15  A    between atoms: _31  and  _32
REMARK   16  A    between atoms: _34  and  _36
REMARK   17  A    between atoms: _36  and  _37
REMARK   18  A    between atoms: _36  and  _39
REMARK   19  A    between atoms: _39  and  _40
REMARK   20  A    between atoms: _43  and  _45
REMARK   21  A    between atoms: _45  and  _46
REMARK   22  A    between atoms: _45  and  _48
REMARK   23  A    between atoms: _48  and  _49
REMARK   24  A    between atoms: _49  and  _50
REMARK   25  A    between atoms: _50  and  _51
REMARK   26  A    between atoms: _51  and  _52
REMARK   27  A    between atoms: _56  and  _58
REMARK   28  A    between atoms: _58  and  _59
REMARK   29  A    between atoms: _58  and  _61
REMARK   30  A    between atoms: _61  and  _62
REMARK   31  A    between atoms: _65  and  _67
REMARK   32  A    between atoms: _67  and  _68
REMARK   33  A    between atoms: _70  and  _72
REMARK   34  A    between atoms: _72  and  _73
REMARK   35  A    between atoms: _72  and  _75
REMARK   36  A    between atoms: _75  and  _76
REMARK   37  A    between atoms: _81  and  _82
REMARK   38  A    between atoms: _85  and  _86
REMARK   39  A    between atoms: _91  and  _93
REMARK   40  A    between atoms: _93  and  _94
REMARK   41  A    between atoms: _93  and  _96
REMARK   42  A    between atoms: _96  and  _97
REMARK   43  A    between atoms: _100  and  _102
REMARK   44  A    between atoms: _102  and  _103
REMARK   45  A    between atoms: _102  and  _105
REMARK   46  A    between atoms: _105  and  _106
REMARK   47  A    between atoms: _109  and  _111
REMARK   48  A    between atoms: _111  and  _112
REMARK   49  A    between atoms: _111  and  _114
REMARK   50  A    between atoms: _114  and  _115
REMARK   51  A    between atoms: _121  and  _123
REMARK   52  A    between atoms: _123  and  _124
REMARK   53  A    between atoms: _123  and  _126
REMARK   54  A    between atoms: _126  and  _127
REMARK   55  A    between atoms: _127  and  _128
REMARK   56  A    between atoms: _128  and  _129
REMARK   57  A    between atoms: _129  and  _130
REMARK   58  A    between atoms: _134  and  _136
REMARK   59  A    between atoms: _136  and  _137
REMARK   60  A    between atoms: _136  and  _139
REMARK   61  A    between atoms: _139  and  _140
REMARK   62  A    between atoms: _143  and  _145
REMARK   63  A    between atoms: _145  and  _146
REMARK   64  A    between atoms: _145  and  _148
REMARK   65  A    between atoms: _148  and  _149
REMARK   66  A    between atoms: _154  and  _156
REMARK   67  A    between atoms: _156  and  _157
REMARK   68  A    between atoms: _156  and  _159
REMARK   69  A    between atoms: _159  and  _160
REMARK   70  A    between atoms: _163  and  _165
REMARK   71  A    between atoms: _165  and  _166
REMARK   72  A    between atoms: _165  and  _168
REMARK   73  A    between atoms: _168  and  _169
REMARK   74  A    between atoms: _172  and  _174
REMARK   75  A    between atoms: _174  and  _175
REMARK   76  A    between atoms: _174  and  _177
REMARK   77  A    between atoms: _177  and  _178
REMARK   78  A    between atoms: _178  and  _179
REMARK   79  A    between atoms: _182  and  _184
REMARK   80  A    between atoms: _184  and  _185
REMARK   81  A    between atoms: _184  and  _187
REMARK   82  A    between atoms: _187  and  _188
REMARK   83  A    between atoms: _188  and  _189
REMARK   84  A    between atoms: _191  and  _193
REMARK   85  A    between atoms: _193  and  _194
REMARK   86  A    between atoms: _193  and  _196
REMARK   87  A    between atoms: _196  and  _197
REMARK   88  A    between atoms: _199  and  _201
REMARK   89  A    between atoms: _201  and  _202
REMARK   90  A    between atoms: _201  and  _204
REMARK   91  A    between atoms: _204  and  _205
REMARK   92  A    between atoms: _210  and  _212
REMARK   93  A    between atoms: _212  and  _213
REMARK   94  A    between atoms: _216  and  _218
REMARK   95  A    between atoms: _218  and  _219
REMARK   96  A    between atoms: _218  and  _221
REMARK   97  A    between atoms: _221  and  _222
REMARK   98  A    between atoms: _225  and  _227
REMARK   99  A    between atoms: _227  and  _228
REMARK  100  A    between atoms: _227  and  _230
REMARK  101  A    between atoms: _233  and  _235
REMARK  102  A    between atoms: _235  and  _236
REMARK  103  A    between atoms: _239  and  _240
REMARK  104  A    between atoms: _245  and  _247
REMARK  105  A    between atoms: _247  and  _248
REMARK  106  A    between atoms: _247  and  _250
REMARK  107  A    between atoms: _250  and  _251
REMARK  108  A    between atoms: _253  and  _255
REMARK  109  A    between atoms: _255  and  _256
REMARK  110  A    between atoms: _255  and  _258
REMARK  111  A    between atoms: _258  and  _259
REMARK  112  A    between atoms: _262  and  _264
REMARK  113  A    between atoms: _264  and  _265
REMARK  114  A    between atoms: _264  and  _267
REMARK  115  A    between atoms: _267  and  _268
REMARK  116  A    between atoms: _268  and  _269
REMARK  117  A    between atoms: _269  and  _270
REMARK  118  A    between atoms: _279  and  _281
REMARK  119  A    between atoms: _281  and  _282
REMARK  120  A    between atoms: _281  and  _284
REMARK  121  A    between atoms: _284  and  _285
REMARK  122  A    between atoms: _288  and  _290
REMARK  123  A    between atoms: _290  and  _291
REMARK  124  A    between atoms: _290  and  _293
REMARK  125  A    between atoms: _293  and  _294
REMARK  126  A    between atoms: _297  and  _298
REMARK  127  A    between atoms: _303  and  _305
REMARK  128  A    between atoms: _305  and  _306
REMARK  129  A    between atoms: _308  and  _310
REMARK  130  A    between atoms: _310  and  _311
REMARK  131  A    between atoms: _310  and  _313
REMARK  132  A    between atoms: _316  and  _318
REMARK  133  A    between atoms: _318  and  _319
REMARK  134  A    between atoms: _321  and  _323
REMARK  135  A    between atoms: _323  and  _324
REMARK  136  A    between atoms: _327  and  _329
REMARK  137  A    between atoms: _329  and  _330
REMARK  138  A    between atoms: _329  and  _332
REMARK  139  A    between atoms: _332  and  _333
REMARK  140  A    between atoms: _333  and  _334
REMARK  141  A    between atoms: _339  and  _341
REMARK  142  A    between atoms: _341  and  _342
REMARK  143  A    between atoms: _344  and  _346
REMARK  144  A    between atoms: _346  and  _347
REMARK  145  A    between atoms: _349  and  _351
REMARK  146  A    between atoms: _351  and  _352
REMARK  147  A    between atoms: _351  and  _354
REMARK  148  A    between atoms: _354  and  _355
REMARK  149  A    between atoms: _358  and  _360
REMARK  150  A    between atoms: _360  and  _361
REMARK  151  A    between atoms: _360  and  _363
REMARK  152  A    between atoms: _366  and  _368
REMARK  153  A    between atoms: _368  and  _369
REMARK  154  A    between atoms: _371  and  _373
REMARK  155  A    between atoms: _373  and  _374
REMARK  156  A    between atoms: _373  and  _376
REMARK  157  A    between atoms: _376  and  _377
REMARK  158  A    between atoms: _377  and  _378
REMARK  159  A    between atoms: _378  and  _379
REMARK  160  A    between atoms: _388  and  _390
REMARK  161  A    between atoms: _390  and  _391
REMARK  162  A    between atoms: _390  and  _393
REMARK  163  A    between atoms: _393  and  _394
REMARK  164  A    between atoms: _396  and  _398
REMARK  165  A    between atoms: _398  and  _399
REMARK  166  A    between atoms: _398  and  _401
REMARK  167  A    between atoms: _401  and  _402
REMARK  168  A    between atoms: _405  and  _407
REMARK  169  A    between atoms: _407  and  _408
REMARK  170  A    between atoms: _407  and  _410
REMARK  171  A    between atoms: _410  and  _411
REMARK  172  A    between atoms: _416  and  _417
REMARK  173  A    between atoms: _419  and  _421
REMARK  174  A    between atoms: _421  and  _422
REMARK  175  A    between atoms: _421  and  _424
REMARK  176  A    between atoms: _424  and  _425
REMARK  177  A    between atoms: _428  and  _430
REMARK  178  A    between atoms: _430  and  _431
REMARK  179  A    between atoms: _434  and  _436
REMARK  180  A    between atoms: _436  and  _437
REMARK  181  A    between atoms: _436  and  _439
REMARK  182  A    between atoms: _439  and  _440
REMARK  183  A    between atoms: _443  and  _445
REMARK  184  A    between atoms: _445  and  _446
REMARK  185  A    between atoms: _445  and  _448
REMARK  186  A    between atoms: _448  and  _449
REMARK  187  A    between atoms: _453  and  _454
REMARK  188  A    between atoms: _459  and  _461
REMARK  189  A    between atoms: _461  and  _462
REMARK  190  A    between atoms: _461  and  _464
REMARK  191  A    between atoms: _464  and  _465
REMARK  192  A    between atoms: _465  and  _466
REMARK  193  A    between atoms: _469  and  _471
REMARK  194  A    between atoms: _471  and  _472
REMARK  195  A    between atoms: _471  and  _474
REMARK  196  A    between atoms: _474  and  _475
REMARK  197  A    between atoms: _478  and  _480
REMARK  198  A    between atoms: _480  and  _481
REMARK  199  A    between atoms: _480  and  _483
REMARK  200  A    between atoms: _483  and  _484
REMARK  201  A    between atoms: _489  and  _491
REMARK  202  A    between atoms: _491  and  _492
REMARK  203  A    between atoms: _491  and  _494
REMARK  204  A    between atoms: _494  and  _495
REMARK  205  A    between atoms: _495  and  _496
REMARK  206  A    between atoms: _496  and  _497
REMARK  207  A    between atoms: _497  and  _498
REMARK  208  A    between atoms: _502  and  _504
REMARK  209  A    between atoms: _504  and  _505
REMARK  210  A    between atoms: _504  and  _507
REMARK  211  A    between atoms: _507  and  _508
REMARK                            x       y       z     vdW  Elec       q    Type
REMARK                         _______ _______ _______ _____ _____    ______ ____
ROOT
ATOM      1  C   PRO A   4      26.492  -9.084  15.956  0.00  0.00    +0.241 C 
ATOM      2  O   PRO A   4      25.659  -8.569  16.696  0.00  0.00    -0.273 OA
ATOM      3  N   GLU A   5      26.187  -9.597  14.760  0.00  0.00    -0.297 N 
ATOM      4  H   GLU A   5      26.913 -10.081  14.194  0.00  0.00    +0.150 HD
ENDROOT
BRANCH   1   8
ATOM      5  C   ILE A   3      28.036 -11.563  16.729  0.00  0.00    +0.244 C 
ATOM      6  O   ILE A   3      26.950 -11.477  17.275  0.00  0.00    -0.273 OA
ATOM      7  N   PRO A   4      28.600 -10.476  16.203  0.00  0.00    -0.272 N 
ATOM      8  CA  PRO A   4      27.954  -9.186  16.385  0.00  0.00    +0.152 C 
ATOM      9  CB  PRO A   4      28.856  -8.217  15.575  0.00  0.00    +0.031 C 
ATOM     10  CG  PRO A   4      30.242  -8.866  15.754  0.00  0.00    +0.024 C 
ATOM     11  CD  PRO A   4      29.956 -10.367  15.644  0.00  0.00    +0.094 C 
BRANCH   5  12
ATOM     12  CA  ILE A   3      28.762 -12.904  16.544  0.00  0.00    +0.149 C 
BRANCH  12  15
ATOM     13  C   ASP A   2      28.343 -13.750  18.812  0.00  0.00    +0.241 C 
ATOM     14  O   ASP A   2      29.127 -12.943  19.334  0.00  0.00    -0.273 OA
ATOM     15  N   ILE A   3      28.153 -13.843  17.495  0.00  0.00    -0.297 N 
ATOM     16  H   ILE A   3      27.552 -14.608  17.128  0.00  0.00    +0.150 HD
BRANCH  13  17
ATOM     17  CA  ASP A   2      27.574 -14.767  19.675  0.00  0.00    +0.160 C 
BRANCH  17  20
ATOM     18  C   ALA A   1      28.312 -15.279  21.919  0.00  0.00    +0.238 C 
ATOM     19  O   ALA A   1      28.846 -16.322  21.560  0.00  0.00    -0.274 OA
ATOM     20  N   ASP A   2      27.707 -14.450  21.081  0.00  0.00    -0.297 N 
ATOM     21  H   ASP A   2      27.320 -13.554  21.440  0.00  0.00    +0.150 HD
BRANCH  18  22
ATOM     22  CA  ALA A   1      28.334 -14.832  23.359  0.00  0.00    +0.145 C 
ATOM     23  CB  ALA A   1      28.777 -16.026  24.276  0.00  0.00    +0.028 C 
BRANCH  22  24
ATOM     24  N   ALA A   1      27.034 -14.349  23.816  0.00  0.00    -0.238 NA
ATOM     25  H   ALA A   1      26.156 -14.711  23.393  0.00  0.00    +0.142 HD
ENDBRANCH  22  24
ENDBRANCH  18  22
ENDBRANCH  17  20
BRANCH  17  26
ATOM     26  CB  ASP A   2      26.068 -14.774  19.314  0.00  0.00    +0.143 C 
BRANCH  26  27
ATOM     27  CG  ASP A   2      25.722 -15.845  18.322  0.00  0.00    +0.367 C 
ATOM     28  OD2 ASP A   2      24.832 -16.684  18.635  0.00  0.00    -0.246 OA
ATOM     29  OD1 ASP A   2      26.317 -15.905  17.225  0.00  0.00    -0.246 OA
ENDBRANCH  26  27
ENDBRANCH  17  26
ENDBRANCH  13  17
ENDBRANCH  12  15
BRANCH  12  30
ATOM     30  CB  ILE A   3      28.613 -13.400  15.083  0.00  0.00    +0.027 C 
ATOM     31  CG2 ILE A   3      29.273 -14.766  14.973  0.00  0.00    +0.002 C 
BRANCH  30  32
ATOM     32  CG1 ILE A   3      27.164 -13.407  14.608  0.00  0.00    +0.002 C 
ATOM     33  CD1 ILE A   3      27.025 -13.621  13.057  0.00  0.00    +0.000 C 
ENDBRANCH  30  32
ENDBRANCH  12  30
ENDBRANCH   5  12
ENDBRANCH   1   8
BRANCH   3  34
ATOM     34  CA  GLU A   5      24.828  -9.470  14.259  0.00  0.00    +0.149 C 
BRANCH  34  35
ATOM     35  C   GLU A   5      23.801 -10.189  15.119  0.00  0.00    +0.241 C 
ATOM     36  N   THR A   6      24.145 -11.383  15.636  0.00  0.00    -0.295 N 
ATOM     37  H   THR A   6      25.080 -11.790  15.430  0.00  0.00    +0.150 HD
ATOM     38  O   GLU A   5      22.689  -9.710  15.313  0.00  0.00    -0.273 OA
BRANCH  36  39
ATOM     39  CA  THR A   6      23.211 -12.102  16.481  0.00  0.00    +0.176 C 
BRANCH  39  40
ATOM     40  C   THR A   6      23.129 -11.444  17.860  0.00  0.00    +0.243 C 
ATOM     41  O   THR A   6      22.034 -11.352  18.456  0.00  0.00    -0.273 OA
ATOM     42  N   ASN A   7      24.272 -10.964  18.357  0.00  0.00    -0.298 N 
ATOM     43  H   ASN A   7      25.159 -11.077  17.825  0.00  0.00    +0.150 HD
BRANCH  42  44
ATOM     44  CA  ASN A   7      24.276 -10.280  19.649  0.00  0.00    +0.146 C 
BRANCH  44  45
ATOM     45  C   ASN A   7      23.347  -9.075  19.607  0.00  0.00    +0.227 C 
ATOM     46  O   ASN A   7      22.635  -8.827  20.585  0.00  0.00    -0.286 OA
ENDBRANCH  44  45
BRANCH  44  47
ATOM     47  CB  ASN A   7      25.671  -9.775  20.016  0.00  0.00    +0.112 C 
BRANCH  47  48
ATOM     48  CG  ASN A   7      26.554 -10.853  20.605  0.00  0.00    +0.222 C 
ATOM     49  ND2 ASN A   7      27.723 -10.442  21.091  0.00  0.00    -0.329 N 
ATOM     50 HD21 ASN A   7      28.378 -11.127  21.518  0.00  0.00    +0.145 HD
ATOM     51 HD22 ASN A   7      27.981  -9.436  21.043  0.00  0.00    +0.145 HD
ATOM     52  OD1 ASN A   7      26.196 -12.036  20.635  0.00  0.00    -0.275 OA
ENDBRANCH  47  48
ENDBRANCH  44  47
ENDBRANCH  42  44
ENDBRANCH  39  40
BRANCH  39  53
ATOM     53  CB  THR A   6      23.666 -13.540  16.583  0.00  0.00    +0.137 C 
ATOM     54  CG2 THR A   6      22.787 -14.317  17.535  0.00  0.00    +0.034 C 
BRANCH  53  55
ATOM     55  OG1 THR A   6      23.543 -14.124  15.276  0.00  0.00    -0.382 OA
ATOM     56  HG1 THR A   6      23.835 -15.070  15.310  0.00  0.00    +0.210 HD
ENDBRANCH  53  55
ENDBRANCH  39  53
ENDBRANCH  36  39
ENDBRANCH  34  35
BRANCH  34  57
ATOM     57  CB  GLU A   5      24.781  -9.972  12.815  0.00  0.00    +0.041 C 
BRANCH  57  58
ATOM     58  CG  GLU A   5      25.532  -9.068  11.844  0.00  0.00    +0.116 C 
BRANCH  58  59
ATOM     59  CD  GLU A   5      27.040  -9.330  11.698  0.00  0.00    +0.365 C 
ATOM     60  OE2 GLU A   5      27.712 -10.048  12.496  0.00  0.00    -0.246 OA
ATOM     61  OE1 GLU A   5      27.581  -8.760  10.727  0.00  0.00    -0.246 OA
ENDBRANCH  58  59
ENDBRANCH  57  58
ENDBRANCH  34  57
ENDBRANCH   3  34
TORSDOF 24
REMARK  Name = ../refined-set-2016/1x1z/1x1z_pocket.pdb
REMARK  211 active torsions:
REMARK  status: ('A' for Active; 'I' for Inactive)
REMARK    1  A    between atoms: _1  and  _3
REMARK    2  A    between atoms: _3  and  _4
REMARK    3  A    between atoms: _3  and  _6
REMARK    4  A    between atoms: _6  and  _7
REMARK    5  A    between atoms: _10  and  _12
REMARK    6  A    between atoms: _12  and  _13
REMARK    7  A    between atoms: _12  and  _15
REMARK    8  A    between atoms: _15  and  _16
REMARK    9  A    between atoms: _19  and  _21
REMARK   10  A    between atoms: _21  and  _22
REMARK   11  A    between atoms: _25  and  _27
REMARK   12  A    between atoms: _27  and  _28
REMARK   13  A    between atoms: _27  and  _30
REMARK   14  A    between atoms: _30  and  _31
REMARK   15  A    between atoms: _31  and  _32
REMARK   16  A    between atoms: _34  and  _36
REMARK   17  A    between atoms: _36  and  _37
REMARK   18  A    between atoms: _36  and  _39
REMARK   19  A    between atoms: _39  and  _40
REMARK   20  A    between atoms: _43  and  _45
REMARK   21  A    between atoms: _45  and  _46
REMARK   22  A    between atoms: _45  and  _48
REMARK   23  A    between atoms: _48  and  _49
REMARK   24  A    between atoms: _49  and  _50
REMARK   25  A    between atoms: _50  and  _51
REMARK   26  A    between atoms: _51  and  _52
REMARK   27  A    between atoms: _56  and  _58
REMARK   28  A    between atoms: _58  and  _59
REMARK   29  A    between atoms: _58  and  _61
REMARK   30  A    between atoms: _61  and  _62
REMARK   31  A    between atoms: _65  and  _67
REMARK   32  A    between atoms: _67  and  _68
REMARK   33  A    between atoms: _70  and  _72
REMARK   34  A    between atoms: _72  and  _73
REMARK   35  A    between atoms: _72  and  _75
REMARK   36  A    between atoms: _75  and  _76
REMARK   37  A    between atoms: _81  and  _82
REMARK   38  A    between atoms: _85  and  _86
REMARK   39  A    between atoms: _91  and  _93
REMARK   40  A    between atoms: _93  and  _94
REMARK   41  A    between atoms: _93  and  _96
REMARK   42  A    between atoms: _96  and  _97
REMARK   43  A    between atoms: _100  and  _102
REMARK   44  A    between atoms: _102  and  _103
REMARK   45  A    between atoms: _102  and  _105
REMARK   46  A    between atoms: _105  and  _106
REMARK   47  A    between atoms: _109  and  _111
REMARK   48  A    between atoms: _111  and  _112
REMARK   49  A    between atoms: _111  and  _114
REMARK   50  A    between atoms: _114  and  _115
REMARK   51  A    between atoms: _121  and  _123
REMARK   52  A    between atoms: _123  and  _124
REMARK   53  A    between atoms: _123  and  _126
REMARK   54  A    between atoms: _126  and  _127
REMARK   55  A    between atoms: _127  and  _128
REMARK   56  A    between atoms: _128  and  _129
REMARK   57  A    between atoms: _129  and  _130
REMARK   58  A    between atoms: _134  and  _136
REMARK   59  A    between atoms: _136  and  _137
REMARK   60  A    between atoms: _136  and  _139
REMARK   61  A    between atoms: _139  and  _140
REMARK   62  A    between atoms: _143  and  _145
REMARK   63  A    between atoms: _145  and  _146
REMARK   64  A    between atoms: _145  and  _148
REMARK   65  A    between atoms: _148  and  _149
REMARK   66  A    between atoms: _154  and  _156
REMARK   67  A    between atoms: _156  and  _157
REMARK   68  A    between atoms: _156  and  _159
REMARK   69  A    between atoms: _159  and  _160
REMARK   70  A    between atoms: _163  and  _165
REMARK   71  A    between atoms: _165  and  _166
REMARK   72  A    between atoms: _165  and  _168
REMARK   73  A    between atoms: _168  and  _169
REMARK   74  A    between atoms: _172  and  _174
REMARK   75  A    between atoms: _174  and  _175
REMARK   76  A    between atoms: _174  and  _177
REMARK   77  A    between atoms: _177  and  _178
REMARK   78  A    between atoms: _178  and  _179
REMARK   79  A    between atoms: _182  and  _184
REMARK   80  A    between atoms: _184  and  _185
REMARK   81  A    between atoms: _184  and  _187
REMARK   82  A    between atoms: _187  and  _188
REMARK   83  A    between atoms: _188  and  _189
REMARK   84  A    between atoms: _191  and  _193
REMARK   85  A    between atoms: _193  and  _194
REMARK   86  A    between atoms: _193  and  _196
REMARK   87  A    between atoms: _196  and  _197
REMARK   88  A    between atoms: _199  and  _201
REMARK   89  A    between atoms: _201  and  _202
REMARK   90  A    between atoms: _201  and  _204
REMARK   91  A    between atoms: _204  and  _205
REMARK   92  A    between atoms: _210  and  _212
REMARK   93  A    between atoms: _212  and  _213
REMARK   94  A    between atoms: _216  and  _218
REMARK   95  A    between atoms: _218  and  _219
REMARK   96  A    between atoms: _218  and  _221
REMARK   97  A    between atoms: _221  and  _222
REMARK   98  A    between atoms: _225  and  _227
REMARK   99  A    between atoms: _227  and  _228
REMARK  100  A    between atoms: _227  and  _230
REMARK  101  A    between atoms: _233  and  _235
REMARK  102  A    between atoms: _235  and  _236
REMARK  103  A    between atoms: _239  and  _240
REMARK  104  A    between atoms: _245  and  _247
REMARK  105  A    between atoms: _247  and  _248
REMARK  106  A    between atoms: _247  and  _250
REMARK  107  A    between atoms: _250  and  _251
REMARK  108  A    between atoms: _253  and  _255
REMARK  109  A    between atoms: _255  and  _256
REMARK  110  A    between atoms: _255  and  _258
REMARK  111  A    between atoms: _258  and  _259
REMARK  112  A    between atoms: _262  and  _264
REMARK  113  A    between atoms: _264  and  _265
REMARK  114  A    between atoms: _264  and  _267
REMARK  115  A    between atoms: _267  and  _268
REMARK  116  A    between atoms: _268  and  _269
REMARK  117  A    between atoms: _269  and  _270
REMARK  118  A    between atoms: _279  and  _281
REMARK  119  A    between atoms: _281  and  _282
REMARK  120  A    between atoms: _281  and  _284
REMARK  121  A    between atoms: _284  and  _285
REMARK  122  A    between atoms: _288  and  _290
REMARK  123  A    between atoms: _290  and  _291
REMARK  124  A    between atoms: _290  and  _293
REMARK  125  A    between atoms: _293  and  _294
REMARK  126  A    between atoms: _297  and  _298
REMARK  127  A    between atoms: _303  and  _305
REMARK  128  A    between atoms: _305  and  _306
REMARK  129  A    between atoms: _308  and  _310
REMARK  130  A    between atoms: _310  and  _311
REMARK  131  A    between atoms: _310  and  _313
REMARK  132  A    between atoms: _316  and  _318
REMARK  133  A    between atoms: _318  and  _319
REMARK  134  A    between atoms: _321  and  _323
REMARK  135  A    between atoms: _323  and  _324
REMARK  136  A    between atoms: _327  and  _329
REMARK  137  A    between atoms: _329  and  _330
REMARK  138  A    between atoms: _329  and  _332
REMARK  139  A    between atoms: _332  and  _333
REMARK  140  A    between atoms: _333  and  _334
REMARK  141  A    between atoms: _339  and  _341
REMARK  142  A    between atoms: _341  and  _342
REMARK  143  A    between atoms: _344  and  _346
REMARK  144  A    between atoms: _346  and  _347
REMARK  145  A    between atoms: _349  and  _351
REMARK  146  A    between atoms: _351  and  _352
REMARK  147  A    between atoms: _351  and  _354
REMARK  148  A    between atoms: _354  and  _355
REMARK  149  A    between atoms: _358  and  _360
REMARK  150  A    between atoms: _360  and  _361
REMARK  151  A    between atoms: _360  and  _363
REMARK  152  A    between atoms: _366  and  _368
REMARK  153  A    between atoms: _368  and  _369
REMARK  154  A    between atoms: _371  and  _373
REMARK  155  A    between atoms: _373  and  _374
REMARK  156  A    between atoms: _373  and  _376
REMARK  157  A    between atoms: _376  and  _377
REMARK  158  A    between atoms: _377  and  _378
REMARK  159  A    between atoms: _378  and  _379
REMARK  160  A    between atoms: _388  and  _390
REMARK  161  A    between atoms: _390  and  _391
REMARK  162  A    between atoms: _390  and  _393
REMARK  163  A    between atoms: _393  and  _394
REMARK  164  A    between atoms: _396  and  _398
REMARK  165  A    between atoms: _398  and  _399
REMARK  166  A    between atoms: _398  and  _401
REMARK  167  A    between atoms: _401  and  _402
REMARK  168  A    between atoms: _405  and  _407
REMARK  169  A    between atoms: _407  and  _408
REMARK  170  A    between atoms: _407  and  _410
REMARK  171  A    between atoms: _410  and  _411
REMARK  172  A    between atoms: _416  and  _417
REMARK  173  A    between atoms: _419  and  _421
REMARK  174  A    between atoms: _421  and  _422
REMARK  175  A    between atoms: _421  and  _424
REMARK  176  A    between atoms: _424  and  _425
REMARK  177  A    between atoms: _428  and  _430
REMARK  178  A    between atoms: _430  and  _431
REMARK  179  A    between atoms: _434  and  _436
REMARK  180  A    between atoms: _436  and  _437
REMARK  181  A    between atoms: _436  and  _439
REMARK  182  A    between atoms: _439  and  _440
REMARK  183  A    between atoms: _443  and  _445
REMARK  184  A    between atoms: _445  and  _446
REMARK  185  A    between atoms: _445  and  _448
REMARK  186  A    between atoms: _448  and  _449
REMARK  187  A    between atoms: _453  and  _454
REMARK  188  A    between atoms: _459  and  _461
REMARK  189  A    between atoms: _461  and  _462
REMARK  190  A    between atoms: _461  and  _464
REMARK  191  A    between atoms: _464  and  _465
REMARK  192  A    between atoms: _465  and  _466
REMARK  193  A    between atoms: _469  and  _471
REMARK  194  A    between atoms: _471  and  _472
REMARK  195  A    between atoms: _471  and  _474
REMARK  196  A    between atoms: _474  and  _475
REMARK  197  A    between atoms: _478  and  _480
REMARK  198  A    between atoms: _480  and  _481
REMARK  199  A    between atoms: _480  and  _483
REMARK  200  A    between atoms: _483  and  _484
REMARK  201  A    between atoms: _489  and  _491
REMARK  202  A    between atoms: _491  and  _492
REMARK  203  A    between atoms: _491  and  _494
REMARK  204  A    between atoms: _494  and  _495
REMARK  205  A    between atoms: _495  and  _496
REMARK  206  A    between atoms: _496  and  _497
REMARK  207  A    between atoms: _497  and  _498
REMARK  208  A    between atoms: _502  and  _504
REMARK  209  A    between atoms: _504  and  _505
REMARK  210  A    between atoms: _504  and  _507
REMARK  211  A    between atoms: _507  and  _508
REMARK                            x       y       z     vdW  Elec       q    Type
REMARK                         _______ _______ _______ _____ _____    ______ ____
ROOT
ATOM      1  CA  LYS A   1      19.243  -9.177  17.944  0.00  0.00    +0.145 C 
ENDROOT
BRANCH   1   2
ATOM      2  C   LYS A   1      18.870  -9.643  19.340  0.00  0.00    +0.238 C 
ATOM      3  N   ILE A   2      19.808 -10.350  20.003  0.00  0.00    -0.298 N 
ATOM      4  H   ILE A   2      20.723 -10.556  19.554  0.00  0.00    +0.150 HD
ATOM      5  O   LYS A   1      17.769  -9.344  19.833  0.00  0.00    -0.274 OA
BRANCH   3   6
ATOM      6  CA  ILE A   2      19.528 -10.828  21.365  0.00  0.00    +0.137 C 
BRANCH   6   7
ATOM      7  C   ILE A   2      19.322  -9.639  22.314  0.00  0.00    +0.227 C 
ATOM      8  O   ILE A   2      18.377  -9.605  23.105  0.00  0.00    -0.286 OA
ENDBRANCH   6   7
BRANCH   6   9
ATOM      9  CB  ILE A   2      20.685 -11.738  21.871  0.00  0.00    +0.026 C 
ATOM     10  CG2 ILE A   2      20.525 -11.995  23.368  0.00  0.00    +0.002 C 
BRANCH   9  11
ATOM     11  CG1 ILE A   2      20.696 -13.040  21.056  0.00  0.00    +0.002 C 
ATOM     12  CD1 ILE A   2      21.929 -13.922  21.295  0.00  0.00    +0.000 C 
ENDBRANCH   9  11
ENDBRANCH   6   9
ENDBRANCH   3   6
ENDBRANCH   1   2
BRANCH   1  13
ATOM     13  N   LYS A   1      20.613  -8.676  17.871  0.00  0.00    -0.238 NA
ATOM     14  H   LYS A   1      21.304  -9.169  17.271  0.00  0.00    +0.142 HD
ENDBRANCH   1  13
BRANCH   1  15
ATOM     15  CB  LYS A   1      19.043 -10.312  16.950  0.00  0.00    +0.026 C 
BRANCH  15  16
ATOM     16  CG  LYS A   1      18.882  -9.824  15.508  0.00  0.00    -0.000 C 
BRANCH  16  17
ATOM     17  CD  LYS A   1      18.923 -11.000  14.559  0.00  0.00    -0.024 C 
BRANCH  17  18
ATOM     18  CE  LYS A   1      18.621 -10.527  13.161  0.00  0.00    -0.086 C 
BRANCH  18  19
ATOM     19  NZ  LYS A   1      18.737 -11.634  12.178  0.00  0.00    +0.380 N 
ATOM     20  HZ1 LYS A   1      18.064 -12.387  12.425  0.00  0.00    -0.089 HD
ATOM     21  HZ2 LYS A   1      19.705 -12.013  12.197  0.00  0.00    -0.089 HD
ATOM     22  HZ3 LYS A   1      18.523 -11.274  11.226  0.00  0.00    -0.089 HD
ENDBRANCH  18  19
ENDBRANCH  17  18
ENDBRANCH  16  17
ENDBRANCH  15  16
ENDBRANCH   1  15
TORSDOF 11
REMARK  Name = ../refined-set-2016/1x1z/1x1z_pocket.pdb
REMARK  211 active torsions:
REMARK  status: ('A' for Active; 'I' for Inactive)
REMARK    1  A    between atoms: _1  and  _3
REMARK    2  A    between atoms: _3  and  _4
REMARK    3  A    between atoms: _3  and  _6
REMARK    4  A    between atoms: _6  and  _7
REMARK    5  A    between atoms: _10  and  _12
REMARK    6  A    between atoms: _12  and  _13
REMARK    7  A    between atoms: _12  and  _15
REMARK    8  A    between atoms: _15  and  _16
REMARK    9  A    between atoms: _19  and  _21
REMARK   10  A    between atoms: _21  and  _22
REMARK   11  A    between atoms: _25  and  _27
REMARK   12  A    between atoms: _27  and  _28
REMARK   13  A    between atoms: _27  and  _30
REMARK   14  A    between atoms: _30  and  _31
REMARK   15  A    between atoms: _31  and  _32
REMARK   16  A    between atoms: _34  and  _36
REMARK   17  A    between atoms: _36  and  _37
REMARK   18  A    between atoms: _36  and  _39
REMARK   19  A    between atoms: _39  and  _40
REMARK   20  A    between atoms: _43  and  _45
REMARK   21  A    between atoms: _45  and  _46
REMARK   22  A    between atoms: _45  and  _48
REMARK   23  A    between atoms: _48  and  _49
REMARK   24  A    between atoms: _49  and  _50
REMARK   25  A    between atoms: _50  and  _51
REMARK   26  A    between atoms: _51  and  _52
REMARK   27  A    between atoms: _56  and  _58
REMARK   28  A    between atoms: _58  and  _59
REMARK   29  A    between atoms: _58  and  _61
REMARK   30  A    between atoms: _61  and  _62
REMARK   31  A    between atoms: _65  and  _67
REMARK   32  A    between atoms: _67  and  _68
REMARK   33  A    between atoms: _70  and  _72
REMARK   34  A    between atoms: _72  and  _73
REMARK   35  A    between atoms: _72  and  _75
REMARK   36  A    between atoms: _75  and  _76
REMARK   37  A    between atoms: _81  and  _82
REMARK   38  A    between atoms: _85  and  _86
REMARK   39  A    between atoms: _91  and  _93
REMARK   40  A    between atoms: _93  and  _94
REMARK   41  A    between atoms: _93  and  _96
REMARK   42  A    between atoms: _96  and  _97
REMARK   43  A    between atoms: _100  and  _102
REMARK   44  A    between atoms: _102  and  _103
REMARK   45  A    between atoms: _102  and  _105
REMARK   46  A    between atoms: _105  and  _106
REMARK   47  A    between atoms: _109  and  _111
REMARK   48  A    between atoms: _111  and  _112
REMARK   49  A    between atoms: _111  and  _114
REMARK   50  A    between atoms: _114  and  _115
REMARK   51  A    between atoms: _121  and  _123
REMARK   52  A    between atoms: _123  and  _124
REMARK   53  A    between atoms: _123  and  _126
REMARK   54  A    between atoms: _126  and  _127
REMARK   55  A    between atoms: _127  and  _128
REMARK   56  A    between atoms: _128  and  _129
REMARK   57  A    between atoms: _129  and  _130
REMARK   58  A    between atoms: _134  and  _136
REMARK   59  A    between atoms: _136  and  _137
REMARK   60  A    between atoms: _136  and  _139
REMARK   61  A    between atoms: _139  and  _140
REMARK   62  A    between atoms: _143  and  _145
REMARK   63  A    between atoms: _145  and  _146
REMARK   64  A    between atoms: _145  and  _148
REMARK   65  A    between atoms: _148  and  _149
REMARK   66  A    between atoms: _154  and  _156
REMARK   67  A    between atoms: _156  and  _157
REMARK   68  A    between atoms: _156  and  _159
REMARK   69  A    between atoms: _159  and  _160
REMARK   70  A    between atoms: _163  and  _165
REMARK   71  A    between atoms: _165  and  _166
REMARK   72  A    between atoms: _165  and  _168
REMARK   73  A    between atoms: _168  and  _169
REMARK   74  A    between atoms: _172  and  _174
REMARK   75  A    between atoms: _174  and  _175
REMARK   76  A    between atoms: _174  and  _177
REMARK   77  A    between atoms: _177  and  _178
REMARK   78  A    between atoms: _178  and  _179
REMARK   79  A    between atoms: _182  and  _184
REMARK   80  A    between atoms: _184  and  _185
REMARK   81  A    between atoms: _184  and  _187
REMARK   82  A    between atoms: _187  and  _188
REMARK   83  A    between atoms: _188  and  _189
REMARK   84  A    between atoms: _191  and  _193
REMARK   85  A    between atoms: _193  and  _194
REMARK   86  A    between atoms: _193  and  _196
REMARK   87  A    between atoms: _196  and  _197
REMARK   88  A    between atoms: _199  and  _201
REMARK   89  A    between atoms: _201  and  _202
REMARK   90  A    between atoms: _201  and  _204
REMARK   91  A    between atoms: _204  and  _205
REMARK   92  A    between atoms: _210  and  _212
REMARK   93  A    between atoms: _212  and  _213
REMARK   94  A    between atoms: _216  and  _218
REMARK   95  A    between atoms: _218  and  _219
REMARK   96  A    between atoms: _218  and  _221
REMARK   97  A    between atoms: _221  and  _222
REMARK   98  A    between atoms: _225  and  _227
REMARK   99  A    between atoms: _227  and  _228
REMARK  100  A    between atoms: _227  and  _230
REMARK  101  A    between atoms: _233  and  _235
REMARK  102  A    between atoms: _235  and  _236
REMARK  103  A    between atoms: _239  and  _240
REMARK  104  A    between atoms: _245  and  _247
REMARK  105  A    between atoms: _247  and  _248
REMARK  106  A    between atoms: _247  and  _250
REMARK  107  A    between atoms: _250  and  _251
REMARK  108  A    between atoms: _253  and  _255
REMARK  109  A    between atoms: _255  and  _256
REMARK  110  A    between atoms: _255  and  _258
REMARK  111  A    between atoms: _258  and  _259
REMARK  112  A    between atoms: _262  and  _264
REMARK  113  A    between atoms: _264  and  _265
REMARK  114  A    between atoms: _264  and  _267
REMARK  115  A    between atoms: _267  and  _268
REMARK  116  A    between atoms: _268  and  _269
REMARK  117  A    between atoms: _269  and  _270
REMARK  118  A    between atoms: _279  and  _281
REMARK  119  A    between atoms: _281  and  _282
REMARK  120  A    between atoms: _281  and  _284
REMARK  121  A    between atoms: _284  and  _285
REMARK  122  A    between atoms: _288  and  _290
REMARK  123  A    between atoms: _290  and  _291
REMARK  124  A    between atoms: _290  and  _293
REMARK  125  A    between atoms: _293  and  _294
REMARK  126  A    between atoms: _297  and  _298
REMARK  127  A    between atoms: _303  and  _305
REMARK  128  A    between atoms: _305  and  _306
REMARK  129  A    between atoms: _308  and  _310
REMARK  130  A    between atoms: _310  and  _311
REMARK  131  A    between atoms: _310  and  _313
REMARK  132  A    between atoms: _316  and  _318
REMARK  133  A    between atoms: _318  and  _319
REMARK  134  A    between atoms: _321  and  _323
REMARK  135  A    between atoms: _323  and  _324
REMARK  136  A    between atoms: _327  and  _329
REMARK  137  A    between atoms: _329  and  _330
REMARK  138  A    between atoms: _329  and  _332
REMARK  139  A    between atoms: _332  and  _333
REMARK  140  A    between atoms: _333  and  _334
REMARK  141  A    between atoms: _339  and  _341
REMARK  142  A    between atoms: _341  and  _342
REMARK  143  A    between atoms: _344  and  _346
REMARK  144  A    between atoms: _346  and  _347
REMARK  145  A    between atoms: _349  and  _351
REMARK  146  A    between atoms: _351  and  _352
REMARK  147  A    between atoms: _351  and  _354
REMARK  148  A    between atoms: _354  and  _355
REMARK  149  A    between atoms: _358  and  _360
REMARK  150  A    between atoms: _360  and  _361
REMARK  151  A    between atoms: _360  and  _363
REMARK  152  A    between atoms: _366  and  _368
REMARK  153  A    between atoms: _368  and  _369
REMARK  154  A    between atoms: _371  and  _373
REMARK  155  A    between atoms: _373  and  _374
REMARK  156  A    between atoms: _373  and  _376
REMARK  157  A    between atoms: _376  and  _377
REMARK  158  A    between atoms: _377  and  _378
REMARK  159  A    between atoms: _378  and  _379
REMARK  160  A    between atoms: _388  and  _390
REMARK  161  A    between atoms: _390  and  _391
REMARK  162  A    between atoms: _390  and  _393
REMARK  163  A    between atoms: _393  and  _394
REMARK  164  A    between atoms: _396  and  _398
REMARK  165  A    between atoms: _398  and  _399
REMARK  166  A    between atoms: _398  and  _401
REMARK  167  A    between atoms: _401  and  _402
REMARK  168  A    between atoms: _405  and  _407
REMARK  169  A    between atoms: _407  and  _408
REMARK  170  A    between atoms: _407  and  _410
REMARK  171  A    between atoms: _410  and  _411
REMARK  172  A    between atoms: _416  and  _417
REMARK  173  A    between atoms: _419  and  _421
REMARK  174  A    between atoms: _421  and  _422
REMARK  175  A    between atoms: _421  and  _424
REMARK  176  A    between atoms: _424  and  _425
REMARK  177  A    between atoms: _428  and  _430
REMARK  178  A    between atoms: _430  and  _431
REMARK  179  A    between atoms: _434  and  _436
REMARK  180  A    between atoms: _436  and  _437
REMARK  181  A    between atoms: _436  and  _439
REMARK  182  A    between atoms: _439  and  _440
REMARK  183  A    between atoms: _443  and  _445
REMARK  184  A    between atoms: _445  and  _446
REMARK  185  A    between atoms: _445  and  _448
REMARK  186  A    between atoms: _448  and  _449
REMARK  187  A    between atoms: _453  and  _454
REMARK  188  A    between atoms: _459  and  _461
REMARK  189  A    between atoms: _461  and  _462
REMARK  190  A    between atoms: _461  and  _464
REMARK  191  A    between atoms: _464  and  _465
REMARK  192  A    between atoms: _465  and  _466
REMARK  193  A    between atoms: _469  and  _471
REMARK  194  A    between atoms: _471  and  _472
REMARK  195  A    between atoms: _471  and  _474
REMARK  196  A    between atoms: _474  and  _475
REMARK  197  A    between atoms: _478  and  _480
REMARK  198  A    between atoms: _480  and  _481
REMARK  199  A    between atoms: _480  and  _483
REMARK  200  A    between atoms: _483  and  _484
REMARK  201  A    between atoms: _489  and  _491
REMARK  202  A    between atoms: _491  and  _492
REMARK  203  A    between atoms: _491  and  _494
REMARK  204  A    between atoms: _494  and  _495
REMARK  205  A    between atoms: _495  and  _496
REMARK  206  A    between atoms: _496  and  _497
REMARK  207  A    between atoms: _497  and  _498
REMARK  208  A    between atoms: _502  and  _504
REMARK  209  A    between atoms: _504  and  _505
REMARK  210  A    between atoms: _504  and  _507
REMARK  211  A    between atoms: _507  and  _508
REMARK                            x       y       z     vdW  Elec       q    Type
REMARK                         _______ _______ _______ _____ _____    ______ ____
ROOT
ATOM      1  O   HOH     1      27.573 -15.974   6.806  0.00  0.00    +0.000 OA
ENDROOT
TORSDOF 0
REMARK  Name = ../refined-set-2016/1x1z/1x1z_pocket.pdb
REMARK  211 active torsions:
REMARK  status: ('A' for Active; 'I' for Inactive)
REMARK    1  A    between atoms: _1  and  _3
REMARK    2  A    between atoms: _3  and  _4
REMARK    3  A    between atoms: _3  and  _6
REMARK    4  A    between atoms: _6  and  _7
REMARK    5  A    between atoms: _10  and  _12
REMARK    6  A    between atoms: _12  and  _13
REMARK    7  A    between atoms: _12  and  _15
REMARK    8  A    between atoms: _15  and  _16
REMARK    9  A    between atoms: _19  and  _21
REMARK   10  A    between atoms: _21  and  _22
REMARK   11  A    between atoms: _25  and  _27
REMARK   12  A    between atoms: _27  and  _28
REMARK   13  A    between atoms: _27  and  _30
REMARK   14  A    between atoms: _30  and  _31
REMARK   15  A    between atoms: _31  and  _32
REMARK   16  A    between atoms: _34  and  _36
REMARK   17  A    between atoms: _36  and  _37
REMARK   18  A    between atoms: _36  and  _39
REMARK   19  A    between atoms: _39  and  _40
REMARK   20  A    between atoms: _43  and  _45
REMARK   21  A    between atoms: _45  and  _46
REMARK   22  A    between atoms: _45  and  _48
REMARK   23  A    between atoms: _48  and  _49
REMARK   24  A    between atoms: _49  and  _50
REMARK   25  A    between atoms: _50  and  _51
REMARK   26  A    between atoms: _51  and  _52
REMARK   27  A    between atoms: _56  and  _58
REMARK   28  A    between atoms: _58  and  _59
REMARK   29  A    between atoms: _58  and  _61
REMARK   30  A    between atoms: _61  and  _62
REMARK   31  A    between atoms: _65  and  _67
REMARK   32  A    between atoms: _67  and  _68
REMARK   33  A    between atoms: _70  and  _72
REMARK   34  A    between atoms: _72  and  _73
REMARK   35  A    between atoms: _72  and  _75
REMARK   36  A    between atoms: _75  and  _76
REMARK   37  A    between atoms: _81  and  _82
REMARK   38  A    between atoms: _85  and  _86
REMARK   39  A    between atoms: _91  and  _93
REMARK   40  A    between atoms: _93  and  _94
REMARK   41  A    between atoms: _93  and  _96
REMARK   42  A    between atoms: _96  and  _97
REMARK   43  A    between atoms: _100  and  _102
REMARK   44  A    between atoms: _102  and  _103
REMARK   45  A    between atoms: _102  and  _105
REMARK   46  A    between atoms: _105  and  _106
REMARK   47  A    between atoms: _109  and  _111
REMARK   48  A    between atoms: _111  and  _112
REMARK   49  A    between atoms: _111  and  _114
REMARK   50  A    between atoms: _114  and  _115
REMARK   51  A    between atoms: _121  and  _123
REMARK   52  A    between atoms: _123  and  _124
REMARK   53  A    between atoms: _123  and  _126
REMARK   54  A    between atoms: _126  and  _127
REMARK   55  A    between atoms: _127  and  _128
REMARK   56  A    between atoms: _128  and  _129
REMARK   57  A    between atoms: _129  and  _130
REMARK   58  A    between atoms: _134  and  _136
REMARK   59  A    between atoms: _136  and  _137
REMARK   60  A    between atoms: _136  and  _139
REMARK   61  A    between atoms: _139  and  _140
REMARK   62  A    between atoms: _143  and  _145
REMARK   63  A    between atoms: _145  and  _146
REMARK   64  A    between atoms: _145  and  _148
REMARK   65  A    between atoms: _148  and  _149
REMARK   66  A    between atoms: _154  and  _156
REMARK   67  A    between atoms: _156  and  _157
REMARK   68  A    between atoms: _156  and  _159
REMARK   69  A    between atoms: _159  and  _160
REMARK   70  A    between atoms: _163  and  _165
REMARK   71  A    between atoms: _165  and  _166
REMARK   72  A    between atoms: _165  and  _168
REMARK   73  A    between atoms: _168  and  _169
REMARK   74  A    between atoms: _172  and  _174
REMARK   75  A    between atoms: _174  and  _175
REMARK   76  A    between atoms: _174  and  _177
REMARK   77  A    between atoms: _177  and  _178
REMARK   78  A    between atoms: _178  and  _179
REMARK   79  A    between atoms: _182  and  _184
REMARK   80  A    between atoms: _184  and  _185
REMARK   81  A    between atoms: _184  and  _187
REMARK   82  A    between atoms: _187  and  _188
REMARK   83  A    between atoms: _188  and  _189
REMARK   84  A    between atoms: _191  and  _193
REMARK   85  A    between atoms: _193  and  _194
REMARK   86  A    between atoms: _193  and  _196
REMARK   87  A    between atoms: _196  and  _197
REMARK   88  A    between atoms: _199  and  _201
REMARK   89  A    between atoms: _201  and  _202
REMARK   90  A    between atoms: _201  and  _204
REMARK   91  A    between atoms: _204  and  _205
REMARK   92  A    between atoms: _210  and  _212
REMARK   93  A    between atoms: _212  and  _213
REMARK   94  A    between atoms: _216  and  _218
REMARK   95  A    between atoms: _218  and  _219
REMARK   96  A    between atoms: _218  and  _221
REMARK   97  A    between atoms: _221  and  _222
REMARK   98  A    between atoms: _225  and  _227
REMARK   99  A    between atoms: _227  and  _228
REMARK  100  A    between atoms: _227  and  _230
REMARK  101  A    between atoms: _233  and  _235
REMARK  102  A    between atoms: _235  and  _236
REMARK  103  A    between atoms: _239  and  _240
REMARK  104  A    between atoms: _245  and  _247
REMARK  105  A    between atoms: _247  and  _248
REMARK  106  A    between atoms: _247  and  _250
REMARK  107  A    between atoms: _250  and  _251
REMARK  108  A    between atoms: _253  and  _255
REMARK  109  A    between atoms: _255  and  _256
REMARK  110  A    between atoms: _255  and  _258
REMARK  111  A    between atoms: _258  and  _259
REMARK  112  A    between atoms: _262  and  _264
REMARK  113  A    between atoms: _264  and  _265
REMARK  114  A    between atoms: _264  and  _267
REMARK  115  A    between atoms: _267  and  _268
REMARK  116  A    between atoms: _268  and  _269
REMARK  117  A    between atoms: _269  and  _270
REMARK  118  A    between atoms: _279  and  _281
REMARK  119  A    between atoms: _281  and  _282
REMARK  120  A    between atoms: _281  and  _284
REMARK  121  A    between atoms: _284  and  _285
REMARK  122  A    between atoms: _288  and  _290
REMARK  123  A    between atoms: _290  and  _291
REMARK  124  A    between atoms: _290  and  _293
REMARK  125  A    between atoms: _293  and  _294
REMARK  126  A    between atoms: _297  and  _298
REMARK  127  A    between atoms: _303  and  _305
REMARK  128  A    between atoms: _305  and  _306
REMARK  129  A    between atoms: _308  and  _310
REMARK  130  A    between atoms: _310  and  _311
REMARK  131  A    between atoms: _310  and  _313
REMARK  132  A    between atoms: _316  and  _318
REMARK  133  A    between atoms: _318  and  _319
REMARK  134  A    between atoms: _321  and  _323
REMARK  135  A    between atoms: _323  and  _324
REMARK  136  A    between atoms: _327  and  _329
REMARK  137  A    between atoms: _329  and  _330
REMARK  138  A    between atoms: _329  and  _332
REMARK  139  A    between atoms: _332  and  _333
REMARK  140  A    between atoms: _333  and  _334
REMARK  141  A    between atoms: _339  and  _341
REMARK  142  A    between atoms: _341  and  _342
REMARK  143  A    between atoms: _344  and  _346
REMARK  144  A    between atoms: _346  and  _347
REMARK  145  A    between atoms: _349  and  _351
REMARK  146  A    between atoms: _351  and  _352
REMARK  147  A    between atoms: _351  and  _354
REMARK  148  A    between atoms: _354  and  _355
REMARK  149  A    between atoms: _358  and  _360
REMARK  150  A    between atoms: _360  and  _361
REMARK  151  A    between atoms: _360  and  _363
REMARK  152  A    between atoms: _366  and  _368
REMARK  153  A    between atoms: _368  and  _369
REMARK  154  A    between atoms: _371  and  _373
REMARK  155  A    between atoms: _373  and  _374
REMARK  156  A    between atoms: _373  and  _376
REMARK  157  A    between atoms: _376  and  _377
REMARK  158  A    between atoms: _377  and  _378
REMARK  159  A    between atoms: _378  and  _379
REMARK  160  A    between atoms: _388  and  _390
REMARK  161  A    between atoms: _390  and  _391
REMARK  162  A    between atoms: _390  and  _393
REMARK  163  A    between atoms: _393  and  _394
REMARK  164  A    between atoms: _396  and  _398
REMARK  165  A    between atoms: _398  and  _399
REMARK  166  A    between atoms: _398  and  _401
REMARK  167  A    between atoms: _401  and  _402
REMARK  168  A    between atoms: _405  and  _407
REMARK  169  A    between atoms: _407  and  _408
REMARK  170  A    between atoms: _407  and  _410
REMARK  171  A    between atoms: _410  and  _411
REMARK  172  A    between atoms: _416  and  _417
REMARK  173  A    between atoms: _419  and  _421
REMARK  174  A    between atoms: _421  and  _422
REMARK  175  A    between atoms: _421  and  _424
REMARK  176  A    between atoms: _424  and  _425
REMARK  177  A    between atoms: _428  and  _430
REMARK  178  A    between atoms: _430  and  _431
REMARK  179  A    between atoms: _434  and  _436
REMARK  180  A    between atoms: _436  and  _437
REMARK  181  A    between atoms: _436  and  _439
REMARK  182  A    between atoms: _439  and  _440
REMARK  183  A    between atoms: _443  and  _445
REMARK  184  A    between atoms: _445  and  _446
REMARK  185  A    between atoms: _445  and  _448
REMARK  186  A    between atoms: _448  and  _449
REMARK  187  A    between atoms: _453  and  _454
REMARK  188  A    between atoms: _459  and  _461
REMARK  189  A    between atoms: _461  and  _462
REMARK  190  A    between atoms: _461  and  _464
REMARK  191  A    between atoms: _464  and  _465
REMARK  192  A    between atoms: _465  and  _466
REMARK  193  A    between atoms: _469  and  _471
REMARK  194  A    between atoms: _471  and  _472
REMARK  195  A    between atoms: _471  and  _474
REMARK  196  A    between atoms: _474  and  _475
REMARK  197  A    between atoms: _478  and  _480
REMARK  198  A    between atoms: _480  and  _481
REMARK  199  A    between atoms: _480  and  _483
REMARK  200  A    between atoms: _483  and  _484
REMARK  201  A    between atoms: _489  and  _491
REMARK  202  A    between atoms: _491  and  _492
REMARK  203  A    between atoms: _491  and  _494
REMARK  204  A    between atoms: _494  and  _495
REMARK  205  A    between atoms: _495  and  _496
REMARK  206  A    between atoms: _496  and  _497
REMARK  207  A    between atoms: _497  and  _498
REMARK  208  A    between atoms: _502  and  _504
REMARK  209  A    between atoms: _504  and  _505
REMARK  210  A    between atoms: _504  and  _507
REMARK  211  A    between atoms: _507  and  _508
REMARK                            x       y       z     vdW  Elec       q    Type
REMARK                         _______ _______ _______ _____ _____    ______ ____
ROOT
ATOM      1  O   HOH     1      24.493 -16.146   5.016  0.00  0.00    +0.000 OA
ENDROOT
TORSDOF 0
REMARK  Name = ../refined-set-2016/1x1z/1x1z_pocket.pdb
REMARK  211 active torsions:
REMARK  status: ('A' for Active; 'I' for Inactive)
REMARK    1  A    between atoms: _1  and  _3
REMARK    2  A    between atoms: _3  and  _4
REMARK    3  A    between atoms: _3  and  _6
REMARK    4  A    between atoms: _6  and  _7
REMARK    5  A    between atoms: _10  and  _12
REMARK    6  A    between atoms: _12  and  _13
REMARK    7  A    between atoms: _12  and  _15
REMARK    8  A    between atoms: _15  and  _16
REMARK    9  A    between atoms: _19  and  _21
REMARK   10  A    between atoms: _21  and  _22
REMARK   11  A    between atoms: _25  and  _27
REMARK   12  A    between atoms: _27  and  _28
REMARK   13  A    between atoms: _27  and  _30
REMARK   14  A    between atoms: _30  and  _31
REMARK   15  A    between atoms: _31  and  _32
REMARK   16  A    between atoms: _34  and  _36
REMARK   17  A    between atoms: _36  and  _37
REMARK   18  A    between atoms: _36  and  _39
REMARK   19  A    between atoms: _39  and  _40
REMARK   20  A    between atoms: _43  and  _45
REMARK   21  A    between atoms: _45  and  _46
REMARK   22  A    between atoms: _45  and  _48
REMARK   23  A    between atoms: _48  and  _49
REMARK   24  A    between atoms: _49  and  _50
REMARK   25  A    between atoms: _50  and  _51
REMARK   26  A    between atoms: _51  and  _52
REMARK   27  A    between atoms: _56  and  _58
REMARK   28  A    between atoms: _58  and  _59
REMARK   29  A    between atoms: _58  and  _61
REMARK   30  A    between atoms: _61  and  _62
REMARK   31  A    between atoms: _65  and  _67
REMARK   32  A    between atoms: _67  and  _68
REMARK   33  A    between atoms: _70  and  _72
REMARK   34  A    between atoms: _72  and  _73
REMARK   35  A    between atoms: _72  and  _75
REMARK   36  A    between atoms: _75  and  _76
REMARK   37  A    between atoms: _81  and  _82
REMARK   38  A    between atoms: _85  and  _86
REMARK   39  A    between atoms: _91  and  _93
REMARK   40  A    between atoms: _93  and  _94
REMARK   41  A    between atoms: _93  and  _96
REMARK   42  A    between atoms: _96  and  _97
REMARK   43  A    between atoms: _100  and  _102
REMARK   44  A    between atoms: _102  and  _103
REMARK   45  A    between atoms: _102  and  _105
REMARK   46  A    between atoms: _105  and  _106
REMARK   47  A    between atoms: _109  and  _111
REMARK   48  A    between atoms: _111  and  _112
REMARK   49  A    between atoms: _111  and  _114
REMARK   50  A    between atoms: _114  and  _115
REMARK   51  A    between atoms: _121  and  _123
REMARK   52  A    between atoms: _123  and  _124
REMARK   53  A    between atoms: _123  and  _126
REMARK   54  A    between atoms: _126  and  _127
REMARK   55  A    between atoms: _127  and  _128
REMARK   56  A    between atoms: _128  and  _129
REMARK   57  A    between atoms: _129  and  _130
REMARK   58  A    between atoms: _134  and  _136
REMARK   59  A    between atoms: _136  and  _137
REMARK   60  A    between atoms: _136  and  _139
REMARK   61  A    between atoms: _139  and  _140
REMARK   62  A    between atoms: _143  and  _145
REMARK   63  A    between atoms: _145  and  _146
REMARK   64  A    between atoms: _145  and  _148
REMARK   65  A    between atoms: _148  and  _149
REMARK   66  A    between atoms: _154  and  _156
REMARK   67  A    between atoms: _156  and  _157
REMARK   68  A    between atoms: _156  and  _159
REMARK   69  A    between atoms: _159  and  _160
REMARK   70  A    between atoms: _163  and  _165
REMARK   71  A    between atoms: _165  and  _166
REMARK   72  A    between atoms: _165  and  _168
REMARK   73  A    between atoms: _168  and  _169
REMARK   74  A    between atoms: _172  and  _174
REMARK   75  A    between atoms: _174  and  _175
REMARK   76  A    between atoms: _174  and  _177
REMARK   77  A    between atoms: _177  and  _178
REMARK   78  A    between atoms: _178  and  _179
REMARK   79  A    between atoms: _182  and  _184
REMARK   80  A    between atoms: _184  and  _185
REMARK   81  A    between atoms: _184  and  _187
REMARK   82  A    between atoms: _187  and  _188
REMARK   83  A    between atoms: _188  and  _189
REMARK   84  A    between atoms: _191  and  _193
REMARK   85  A    between atoms: _193  and  _194
REMARK   86  A    between atoms: _193  and  _196
REMARK   87  A    between atoms: _196  and  _197
REMARK   88  A    between atoms: _199  and  _201
REMARK   89  A    between atoms: _201  and  _202
REMARK   90  A    between atoms: _201  and  _204
REMARK   91  A    between atoms: _204  and  _205
REMARK   92  A    between atoms: _210  and  _212
REMARK   93  A    between atoms: _212  and  _213
REMARK   94  A    between atoms: _216  and  _218
REMARK   95  A    between atoms: _218  and  _219
REMARK   96  A    between atoms: _218  and  _221
REMARK   97  A    between atoms: _221  and  _222
REMARK   98  A    between atoms: _225  and  _227
REMARK   99  A    between atoms: _227  and  _228
REMARK  100  A    between atoms: _227  and  _230
REMARK  101  A    between atoms: _233  and  _235
REMARK  102  A    between atoms: _235  and  _236
REMARK  103  A    between atoms: _239  and  _240
REMARK  104  A    between atoms: _245  and  _247
REMARK  105  A    between atoms: _247  and  _248
REMARK  106  A    between atoms: _247  and  _250
REMARK  107  A    between atoms: _250  and  _251
REMARK  108  A    between atoms: _253  and  _255
REMARK  109  A    between atoms: _255  and  _256
REMARK  110  A    between atoms: _255  and  _258
REMARK  111  A    between atoms: _258  and  _259
REMARK  112  A    between atoms: _262  and  _264
REMARK  113  A    between atoms: _264  and  _265
REMARK  114  A    between atoms: _264  and  _267
REMARK  115  A    between atoms: _267  and  _268
REMARK  116  A    between atoms: _268  and  _269
REMARK  117  A    between atoms: _269  and  _270
REMARK  118  A    between atoms: _279  and  _281
REMARK  119  A    between atoms: _281  and  _282
REMARK  120  A    between atoms: _281  and  _284
REMARK  121  A    between atoms: _284  and  _285
REMARK  122  A    between atoms: _288  and  _290
REMARK  123  A    between atoms: _290  and  _291
REMARK  124  A    between atoms: _290  and  _293
REMARK  125  A    between atoms: _293  and  _294
REMARK  126  A    between atoms: _297  and  _298
REMARK  127  A    between atoms: _303  and  _305
REMARK  128  A    between atoms: _305  and  _306
REMARK  129  A    between atoms: _308  and  _310
REMARK  130  A    between atoms: _310  and  _311
REMARK  131  A    between atoms: _310  and  _313
REMARK  132  A    between atoms: _316  and  _318
REMARK  133  A    between atoms: _318  and  _319
REMARK  134  A    between atoms: _321  and  _323
REMARK  135  A    between atoms: _323  and  _324
REMARK  136  A    between atoms: _327  and  _329
REMARK  137  A    between atoms: _329  and  _330
REMARK  138  A    between atoms: _329  and  _332
REMARK  139  A    between atoms: _332  and  _333
REMARK  140  A    between atoms: _333  and  _334
REMARK  141  A    between atoms: _339  and  _341
REMARK  142  A    between atoms: _341  and  _342
REMARK  143  A    between atoms: _344  and  _346
REMARK  144  A    between atoms: _346  and  _347
REMARK  145  A    between atoms: _349  and  _351
REMARK  146  A    between atoms: _351  and  _352
REMARK  147  A    between atoms: _351  and  _354
REMARK  148  A    between atoms: _354  and  _355
REMARK  149  A    between atoms: _358  and  _360
REMARK  150  A    between atoms: _360  and  _361
REMARK  151  A    between atoms: _360  and  _363
REMARK  152  A    between atoms: _366  and  _368
REMARK  153  A    between atoms: _368  and  _369
REMARK  154  A    between atoms: _371  and  _373
REMARK  155  A    between atoms: _373  and  _374
REMARK  156  A    between atoms: _373  and  _376
REMARK  157  A    between atoms: _376  and  _377
REMARK  158  A    between atoms: _377  and  _378
REMARK  159  A    between atoms: _378  and  _379
REMARK  160  A    between atoms: _388  and  _390
REMARK  161  A    between atoms: _390  and  _391
REMARK  162  A    between atoms: _390  and  _393
REMARK  163  A    between atoms: _393  and  _394
REMARK  164  A    between atoms: _396  and  _398
REMARK  165  A    between atoms: _398  and  _399
REMARK  166  A    between atoms: _398  and  _401
REMARK  167  A    between atoms: _401  and  _402
REMARK  168  A    between atoms: _405  and  _407
REMARK  169  A    between atoms: _407  and  _408
REMARK  170  A    between atoms: _407  and  _410
REMARK  171  A    between atoms: _410  and  _411
REMARK  172  A    between atoms: _416  and  _417
REMARK  173  A    between atoms: _419  and  _421
REMARK  174  A    between atoms: _421  and  _422
REMARK  175  A    between atoms: _421  and  _424
REMARK  176  A    between atoms: _424  and  _425
REMARK  177  A    between atoms: _428  and  _430
REMARK  178  A    between atoms: _430  and  _431
REMARK  179  A    between atoms: _434  and  _436
REMARK  180  A    between atoms: _436  and  _437
REMARK  181  A    between atoms: _436  and  _439
REMARK  182  A    between atoms: _439  and  _440
REMARK  183  A    between atoms: _443  and  _445
REMARK  184  A    between atoms: _445  and  _446
REMARK  185  A    between atoms: _445  and  _448
REMARK  186  A    between atoms: _448  and  _449
REMARK  187  A    between atoms: _453  and  _454
REMARK  188  A    between atoms: _459  and  _461
REMARK  189  A    between atoms: _461  and  _462
REMARK  190  A    between atoms: _461  and  _464
REMARK  191  A    between atoms: _464  and  _465
REMARK  192  A    between atoms: _465  and  _466
REMARK  193  A    between atoms: _469  and  _471
REMARK  194  A    between atoms: _471  and  _472
REMARK  195  A    between atoms: _471  and  _474
REMARK  196  A    between atoms: _474  and  _475
REMARK  197  A    between atoms: _478  and  _480
REMARK  198  A    between atoms: _480  and  _481
REMARK  199  A    between atoms: _480  and  _483
REMARK  200  A    between atoms: _483  and  _484
REMARK  201  A    between atoms: _489  and  _491
REMARK  202  A    between atoms: _491  and  _492
REMARK  203  A    between atoms: _491  and  _494
REMARK  204  A    between atoms: _494  and  _495
REMARK  205  A    between atoms: _495  and  _496
REMARK  206  A    between atoms: _496  and  _497
REMARK  207  A    between atoms: _497  and  _498
REMARK  208  A    between atoms: _502  and  _504
REMARK  209  A    between atoms: _504  and  _505
REMARK  210  A    between atoms: _504  and  _507
REMARK  211  A    between atoms: _507  and  _508
REMARK                            x       y       z     vdW  Elec       q    Type
REMARK                         _______ _______ _______ _____ _____    ______ ____
ROOT
ATOM      1  O   HOH     1      17.241 -17.719  15.839  0.00  0.00    +0.000 OA
ENDROOT
TORSDOF 0
REMARK  Name = ../refined-set-2016/1x1z/1x1z_pocket.pdb
REMARK  211 active torsions:
REMARK  status: ('A' for Active; 'I' for Inactive)
REMARK    1  A    between atoms: _1  and  _3
REMARK    2  A    between atoms: _3  and  _4
REMARK    3  A    between atoms: _3  and  _6
REMARK    4  A    between atoms: _6  and  _7
REMARK    5  A    between atoms: _10  and  _12
REMARK    6  A    between atoms: _12  and  _13
REMARK    7  A    between atoms: _12  and  _15
REMARK    8  A    between atoms: _15  and  _16
REMARK    9  A    between atoms: _19  and  _21
REMARK   10  A    between atoms: _21  and  _22
REMARK   11  A    between atoms: _25  and  _27
REMARK   12  A    between atoms: _27  and  _28
REMARK   13  A    between atoms: _27  and  _30
REMARK   14  A    between atoms: _30  and  _31
REMARK   15  A    between atoms: _31  and  _32
REMARK   16  A    between atoms: _34  and  _36
REMARK   17  A    between atoms: _36  and  _37
REMARK   18  A    between atoms: _36  and  _39
REMARK   19  A    between atoms: _39  and  _40
REMARK   20  A    between atoms: _43  and  _45
REMARK   21  A    between atoms: _45  and  _46
REMARK   22  A    between atoms: _45  and  _48
REMARK   23  A    between atoms: _48  and  _49
REMARK   24  A    between atoms: _49  and  _50
REMARK   25  A    between atoms: _50  and  _51
REMARK   26  A    between atoms: _51  and  _52
REMARK   27  A    between atoms: _56  and  _58
REMARK   28  A    between atoms: _58  and  _59
REMARK   29  A    between atoms: _58  and  _61
REMARK   30  A    between atoms: _61  and  _62
REMARK   31  A    between atoms: _65  and  _67
REMARK   32  A    between atoms: _67  and  _68
REMARK   33  A    between atoms: _70  and  _72
REMARK   34  A    between atoms: _72  and  _73
REMARK   35  A    between atoms: _72  and  _75
REMARK   36  A    between atoms: _75  and  _76
REMARK   37  A    between atoms: _81  and  _82
REMARK   38  A    between atoms: _85  and  _86
REMARK   39  A    between atoms: _91  and  _93
REMARK   40  A    between atoms: _93  and  _94
REMARK   41  A    between atoms: _93  and  _96
REMARK   42  A    between atoms: _96  and  _97
REMARK   43  A    between atoms: _100  and  _102
REMARK   44  A    between atoms: _102  and  _103
REMARK   45  A    between atoms: _102  and  _105
REMARK   46  A    between atoms: _105  and  _106
REMARK   47  A    between atoms: _109  and  _111
REMARK   48  A    between atoms: _111  and  _112
REMARK   49  A    between atoms: _111  and  _114
REMARK   50  A    between atoms: _114  and  _115
REMARK   51  A    between atoms: _121  and  _123
REMARK   52  A    between atoms: _123  and  _124
REMARK   53  A    between atoms: _123  and  _126
REMARK   54  A    between atoms: _126  and  _127
REMARK   55  A    between atoms: _127  and  _128
REMARK   56  A    between atoms: _128  and  _129
REMARK   57  A    between atoms: _129  and  _130
REMARK   58  A    between atoms: _134  and  _136
REMARK   59  A    between atoms: _136  and  _137
REMARK   60  A    between atoms: _136  and  _139
REMARK   61  A    between atoms: _139  and  _140
REMARK   62  A    between atoms: _143  and  _145
REMARK   63  A    between atoms: _145  and  _146
REMARK   64  A    between atoms: _145  and  _148
REMARK   65  A    between atoms: _148  and  _149
REMARK   66  A    between atoms: _154  and  _156
REMARK   67  A    between atoms: _156  and  _157
REMARK   68  A    between atoms: _156  and  _159
REMARK   69  A    between atoms: _159  and  _160
REMARK   70  A    between atoms: _163  and  _165
REMARK   71  A    between atoms: _165  and  _166
REMARK   72  A    between atoms: _165  and  _168
REMARK   73  A    between atoms: _168  and  _169
REMARK   74  A    between atoms: _172  and  _174
REMARK   75  A    between atoms: _174  and  _175
REMARK   76  A    between atoms: _174  and  _177
REMARK   77  A    between atoms: _177  and  _178
REMARK   78  A    between atoms: _178  and  _179
REMARK   79  A    between atoms: _182  and  _184
REMARK   80  A    between atoms: _184  and  _185
REMARK   81  A    between atoms: _184  and  _187
REMARK   82  A    between atoms: _187  and  _188
REMARK   83  A    between atoms: _188  and  _189
REMARK   84  A    between atoms: _191  and  _193
REMARK   85  A    between atoms: _193  and  _194
REMARK   86  A    between atoms: _193  and  _196
REMARK   87  A    between atoms: _196  and  _197
REMARK   88  A    between atoms: _199  and  _201
REMARK   89  A    between atoms: _201  and  _202
REMARK   90  A    between atoms: _201  and  _204
REMARK   91  A    between atoms: _204  and  _205
REMARK   92  A    between atoms: _210  and  _212
REMARK   93  A    between atoms: _212  and  _213
REMARK   94  A    between atoms: _216  and  _218
REMARK   95  A    between atoms: _218  and  _219
REMARK   96  A    between atoms: _218  and  _221
REMARK   97  A    between atoms: _221  and  _222
REMARK   98  A    between atoms: _225  and  _227
REMARK   99  A    between atoms: _227  and  _228
REMARK  100  A    between atoms: _227  and  _230
REMARK  101  A    between atoms: _233  and  _235
REMARK  102  A    between atoms: _235  and  _236
REMARK  103  A    between atoms: _239  and  _240
REMARK  104  A    between atoms: _245  and  _247
REMARK  105  A    between atoms: _247  and  _248
REMARK  106  A    between atoms: _247  and  _250
REMARK  107  A    between atoms: _250  and  _251
REMARK  108  A    between atoms: _253  and  _255
REMARK  109  A    between atoms: _255  and  _256
REMARK  110  A    between atoms: _255  and  _258
REMARK  111  A    between atoms: _258  and  _259
REMARK  112  A    between atoms: _262  and  _264
REMARK  113  A    between atoms: _264  and  _265
REMARK  114  A    between atoms: _264  and  _267
REMARK  115  A    between atoms: _267  and  _268
REMARK  116  A    between atoms: _268  and  _269
REMARK  117  A    between atoms: _269  and  _270
REMARK  118  A    between atoms: _279  and  _281
REMARK  119  A    between atoms: _281  and  _282
REMARK  120  A    between atoms: _281  and  _284
REMARK  121  A    between atoms: _284  and  _285
REMARK  122  A    between atoms: _288  and  _290
REMARK  123  A    between atoms: _290  and  _291
REMARK  124  A    between atoms: _290  and  _293
REMARK  125  A    between atoms: _293  and  _294
REMARK  126  A    between atoms: _297  and  _298
REMARK  127  A    between atoms: _303  and  _305
REMARK  128  A    between atoms: _305  and  _306
REMARK  129  A    between atoms: _308  and  _310
REMARK  130  A    between atoms: _310  and  _311
REMARK  131  A    between atoms: _310  and  _313
REMARK  132  A    between atoms: _316  and  _318
REMARK  133  A    between atoms: _318  and  _319
REMARK  134  A    between atoms: _321  and  _323
REMARK  135  A    between atoms: _323  and  _324
REMARK  136  A    between atoms: _327  and  _329
REMARK  137  A    between atoms: _329  and  _330
REMARK  138  A    between atoms: _329  and  _332
REMARK  139  A    between atoms: _332  and  _333
REMARK  140  A    between atoms: _333  and  _334
REMARK  141  A    between atoms: _339  and  _341
REMARK  142  A    between atoms: _341  and  _342
REMARK  143  A    between atoms: _344  and  _346
REMARK  144  A    between atoms: _346  and  _347
REMARK  145  A    between atoms: _349  and  _351
REMARK  146  A    between atoms: _351  and  _352
REMARK  147  A    between atoms: _351  and  _354
REMARK  148  A    between atoms: _354  and  _355
REMARK  149  A    between atoms: _358  and  _360
REMARK  150  A    between atoms: _360  and  _361
REMARK  151  A    between atoms: _360  and  _363
REMARK  152  A    between atoms: _366  and  _368
REMARK  153  A    between atoms: _368  and  _369
REMARK  154  A    between atoms: _371  and  _373
REMARK  155  A    between atoms: _373  and  _374
REMARK  156  A    between atoms: _373  and  _376
REMARK  157  A    between atoms: _376  and  _377
REMARK  158  A    between atoms: _377  and  _378
REMARK  159  A    between atoms: _378  and  _379
REMARK  160  A    between atoms: _388  and  _390
REMARK  161  A    between atoms: _390  and  _391
REMARK  162  A    between atoms: _390  and  _393
REMARK  163  A    between atoms: _393  and  _394
REMARK  164  A    between atoms: _396  and  _398
REMARK  165  A    between atoms: _398  and  _399
REMARK  166  A    between atoms: _398  and  _401
REMARK  167  A    between atoms: _401  and  _402
REMARK  168  A    between atoms: _405  and  _407
REMARK  169  A    between atoms: _407  and  _408
REMARK  170  A    between atoms: _407  and  _410
REMARK  171  A    between atoms: _410  and  _411
REMARK  172  A    between atoms: _416  and  _417
REMARK  173  A    between atoms: _419  and  _421
REMARK  174  A    between atoms: _421  and  _422
REMARK  175  A    between atoms: _421  and  _424
REMARK  176  A    between atoms: _424  and  _425
REMARK  177  A    between atoms: _428  and  _430
REMARK  178  A    between atoms: _430  and  _431
REMARK  179  A    between atoms: _434  and  _436
REMARK  180  A    between atoms: _436  and  _437
REMARK  181  A    between atoms: _436  and  _439
REMARK  182  A    between atoms: _439  and  _440
REMARK  183  A    between atoms: _443  and  _445
REMARK  184  A    between atoms: _445  and  _446
REMARK  185  A    between atoms: _445  and  _448
REMARK  186  A    between atoms: _448  and  _449
REMARK  187  A    between atoms: _453  and  _454
REMARK  188  A    between atoms: _459  and  _461
REMARK  189  A    between atoms: _461  and  _462
REMARK  190  A    between atoms: _461  and  _464
REMARK  191  A    between atoms: _464  and  _465
REMARK  192  A    between atoms: _465  and  _466
REMARK  193  A    between atoms: _469  and  _471
REMARK  194  A    between atoms: _471  and  _472
REMARK  195  A    between atoms: _471  and  _474
REMARK  196  A    between atoms: _474  and  _475
REMARK  197  A    between atoms: _478  and  _480
REMARK  198  A    between atoms: _480  and  _481
REMARK  199  A    between atoms: _480  and  _483
REMARK  200  A    between atoms: _483  and  _484
REMARK  201  A    between atoms: _489  and  _491
REMARK  202  A    between atoms: _491  and  _492
REMARK  203  A    between atoms: _491  and  _494
REMARK  204  A    between atoms: _494  and  _495
REMARK  205  A    between atoms: _495  and  _496
REMARK  206  A    between atoms: _496  and  _497
REMARK  207  A    between atoms: _497  and  _498
REMARK  208  A    between atoms: _502  and  _504
REMARK  209  A    between atoms: _504  and  _505
REMARK  210  A    between atoms: _504  and  _507
REMARK  211  A    between atoms: _507  and  _508
REMARK                            x       y       z     vdW  Elec       q    Type
REMARK                         _______ _______ _______ _____ _____    ______ ____
ROOT
ATOM      1  O   HOH     1      32.428 -21.250  13.875  0.00  0.00    +0.000 OA
ENDROOT
TORSDOF 0
REMARK  Name = ../refined-set-2016/1x1z/1x1z_pocket.pdb
REMARK  211 active torsions:
REMARK  status: ('A' for Active; 'I' for Inactive)
REMARK    1  A    between atoms: _1  and  _3
REMARK    2  A    between atoms: _3  and  _4
REMARK    3  A    between atoms: _3  and  _6
REMARK    4  A    between atoms: _6  and  _7
REMARK    5  A    between atoms: _10  and  _12
REMARK    6  A    between atoms: _12  and  _13
REMARK    7  A    between atoms: _12  and  _15
REMARK    8  A    between atoms: _15  and  _16
REMARK    9  A    between atoms: _19  and  _21
REMARK   10  A    between atoms: _21  and  _22
REMARK   11  A    between atoms: _25  and  _27
REMARK   12  A    between atoms: _27  and  _28
REMARK   13  A    between atoms: _27  and  _30
REMARK   14  A    between atoms: _30  and  _31
REMARK   15  A    between atoms: _31  and  _32
REMARK   16  A    between atoms: _34  and  _36
REMARK   17  A    between atoms: _36  and  _37
REMARK   18  A    between atoms: _36  and  _39
REMARK   19  A    between atoms: _39  and  _40
REMARK   20  A    between atoms: _43  and  _45
REMARK   21  A    between atoms: _45  and  _46
REMARK   22  A    between atoms: _45  and  _48
REMARK   23  A    between atoms: _48  and  _49
REMARK   24  A    between atoms: _49  and  _50
REMARK   25  A    between atoms: _50  and  _51
REMARK   26  A    between atoms: _51  and  _52
REMARK   27  A    between atoms: _56  and  _58
REMARK   28  A    between atoms: _58  and  _59
REMARK   29  A    between atoms: _58  and  _61
REMARK   30  A    between atoms: _61  and  _62
REMARK   31  A    between atoms: _65  and  _67
REMARK   32  A    between atoms: _67  and  _68
REMARK   33  A    between atoms: _70  and  _72
REMARK   34  A    between atoms: _72  and  _73
REMARK   35  A    between atoms: _72  and  _75
REMARK   36  A    between atoms: _75  and  _76
REMARK   37  A    between atoms: _81  and  _82
REMARK   38  A    between atoms: _85  and  _86
REMARK   39  A    between atoms: _91  and  _93
REMARK   40  A    between atoms: _93  and  _94
REMARK   41  A    between atoms: _93  and  _96
REMARK   42  A    between atoms: _96  and  _97
REMARK   43  A    between atoms: _100  and  _102
REMARK   44  A    between atoms: _102  and  _103
REMARK   45  A    between atoms: _102  and  _105
REMARK   46  A    between atoms: _105  and  _106
REMARK   47  A    between atoms: _109  and  _111
REMARK   48  A    between atoms: _111  and  _112
REMARK   49  A    between atoms: _111  and  _114
REMARK   50  A    between atoms: _114  and  _115
REMARK   51  A    between atoms: _121  and  _123
REMARK   52  A    between atoms: _123  and  _124
REMARK   53  A    between atoms: _123  and  _126
REMARK   54  A    between atoms: _126  and  _127
REMARK   55  A    between atoms: _127  and  _128
REMARK   56  A    between atoms: _128  and  _129
REMARK   57  A    between atoms: _129  and  _130
REMARK   58  A    between atoms: _134  and  _136
REMARK   59  A    between atoms: _136  and  _137
REMARK   60  A    between atoms: _136  and  _139
REMARK   61  A    between atoms: _139  and  _140
REMARK   62  A    between atoms: _143  and  _145
REMARK   63  A    between atoms: _145  and  _146
REMARK   64  A    between atoms: _145  and  _148
REMARK   65  A    between atoms: _148  and  _149
REMARK   66  A    between atoms: _154  and  _156
REMARK   67  A    between atoms: _156  and  _157
REMARK   68  A    between atoms: _156  and  _159
REMARK   69  A    between atoms: _159  and  _160
REMARK   70  A    between atoms: _163  and  _165
REMARK   71  A    between atoms: _165  and  _166
REMARK   72  A    between atoms: _165  and  _168
REMARK   73  A    between atoms: _168  and  _169
REMARK   74  A    between atoms: _172  and  _174
REMARK   75  A    between atoms: _174  and  _175
REMARK   76  A    between atoms: _174  and  _177
REMARK   77  A    between atoms: _177  and  _178
REMARK   78  A    between atoms: _178  and  _179
REMARK   79  A    between atoms: _182  and  _184
REMARK   80  A    between atoms: _184  and  _185
REMARK   81  A    between atoms: _184  and  _187
REMARK   82  A    between atoms: _187  and  _188
REMARK   83  A    between atoms: _188  and  _189
REMARK   84  A    between atoms: _191  and  _193
REMARK   85  A    between atoms: _193  and  _194
REMARK   86  A    between atoms: _193  and  _196
REMARK   87  A    between atoms: _196  and  _197
REMARK   88  A    between atoms: _199  and  _201
REMARK   89  A    between atoms: _201  and  _202
REMARK   90  A    between atoms: _201  and  _204
REMARK   91  A    between atoms: _204  and  _205
REMARK   92  A    between atoms: _210  and  _212
REMARK   93  A    between atoms: _212  and  _213
REMARK   94  A    between atoms: _216  and  _218
REMARK   95  A    between atoms: _218  and  _219
REMARK   96  A    between atoms: _218  and  _221
REMARK   97  A    between atoms: _221  and  _222
REMARK   98  A    between atoms: _225  and  _227
REMARK   99  A    between atoms: _227  and  _228
REMARK  100  A    between atoms: _227  and  _230
REMARK  101  A    between atoms: _233  and  _235
REMARK  102  A    between atoms: _235  and  _236
REMARK  103  A    between atoms: _239  and  _240
REMARK  104  A    between atoms: _245  and  _247
REMARK  105  A    between atoms: _247  and  _248
REMARK  106  A    between atoms: _247  and  _250
REMARK  107  A    between atoms: _250  and  _251
REMARK  108  A    between atoms: _253  and  _255
REMARK  109  A    between atoms: _255  and  _256
REMARK  110  A    between atoms: _255  and  _258
REMARK  111  A    between atoms: _258  and  _259
REMARK  112  A    between atoms: _262  and  _264
REMARK  113  A    between atoms: _264  and  _265
REMARK  114  A    between atoms: _264  and  _267
REMARK  115  A    between atoms: _267  and  _268
REMARK  116  A    between atoms: _268  and  _269
REMARK  117  A    between atoms: _269  and  _270
REMARK  118  A    between atoms: _279  and  _281
REMARK  119  A    between atoms: _281  and  _282
REMARK  120  A    between atoms: _281  and  _284
REMARK  121  A    between atoms: _284  and  _285
REMARK  122  A    between atoms: _288  and  _290
REMARK  123  A    between atoms: _290  and  _291
REMARK  124  A    between atoms: _290  and  _293
REMARK  125  A    between atoms: _293  and  _294
REMARK  126  A    between atoms: _297  and  _298
REMARK  127  A    between atoms: _303  and  _305
REMARK  128  A    between atoms: _305  and  _306
REMARK  129  A    between atoms: _308  and  _310
REMARK  130  A    between atoms: _310  and  _311
REMARK  131  A    between atoms: _310  and  _313
REMARK  132  A    between atoms: _316  and  _318
REMARK  133  A    between atoms: _318  and  _319
REMARK  134  A    between atoms: _321  and  _323
REMARK  135  A    between atoms: _323  and  _324
REMARK  136  A    between atoms: _327  and  _329
REMARK  137  A    between atoms: _329  and  _330
REMARK  138  A    between atoms: _329  and  _332
REMARK  139  A    between atoms: _332  and  _333
REMARK  140  A    between atoms: _333  and  _334
REMARK  141  A    between atoms: _339  and  _341
REMARK  142  A    between atoms: _341  and  _342
REMARK  143  A    between atoms: _344  and  _346
REMARK  144  A    between atoms: _346  and  _347
REMARK  145  A    between atoms: _349  and  _351
REMARK  146  A    between atoms: _351  and  _352
REMARK  147  A    between atoms: _351  and  _354
REMARK  148  A    between atoms: _354  and  _355
REMARK  149  A    between atoms: _358  and  _360
REMARK  150  A    between atoms: _360  and  _361
REMARK  151  A    between atoms: _360  and  _363
REMARK  152  A    between atoms: _366  and  _368
REMARK  153  A    between atoms: _368  and  _369
REMARK  154  A    between atoms: _371  and  _373
REMARK  155  A    between atoms: _373  and  _374
REMARK  156  A    between atoms: _373  and  _376
REMARK  157  A    between atoms: _376  and  _377
REMARK  158  A    between atoms: _377  and  _378
REMARK  159  A    between atoms: _378  and  _379
REMARK  160  A    between atoms: _388  and  _390
REMARK  161  A    between atoms: _390  and  _391
REMARK  162  A    between atoms: _390  and  _393
REMARK  163  A    between atoms: _393  and  _394
REMARK  164  A    between atoms: _396  and  _398
REMARK  165  A    between atoms: _398  and  _399
REMARK  166  A    between atoms: _398  and  _401
REMARK  167  A    between atoms: _401  and  _402
REMARK  168  A    between atoms: _405  and  _407
REMARK  169  A    between atoms: _407  and  _408
REMARK  170  A    between atoms: _407  and  _410
REMARK  171  A    between atoms: _410  and  _411
REMARK  172  A    between atoms: _416  and  _417
REMARK  173  A    between atoms: _419  and  _421
REMARK  174  A    between atoms: _421  and  _422
REMARK  175  A    between atoms: _421  and  _424
REMARK  176  A    between atoms: _424  and  _425
REMARK  177  A    between atoms: _428  and  _430
REMARK  178  A    between atoms: _430  and  _431
REMARK  179  A    between atoms: _434  and  _436
REMARK  180  A    between atoms: _436  and  _437
REMARK  181  A    between atoms: _436  and  _439
REMARK  182  A    between atoms: _439  and  _440
REMARK  183  A    between atoms: _443  and  _445
REMARK  184  A    between atoms: _445  and  _446
REMARK  185  A    between atoms: _445  and  _448
REMARK  186  A    between atoms: _448  and  _449
REMARK  187  A    between atoms: _453  and  _454
REMARK  188  A    between atoms: _459  and  _461
REMARK  189  A    between atoms: _461  and  _462
REMARK  190  A    between atoms: _461  and  _464
REMARK  191  A    between atoms: _464  and  _465
REMARK  192  A    between atoms: _465  and  _466
REMARK  193  A    between atoms: _469  and  _471
REMARK  194  A    between atoms: _471  and  _472
REMARK  195  A    between atoms: _471  and  _474
REMARK  196  A    between atoms: _474  and  _475
REMARK  197  A    between atoms: _478  and  _480
REMARK  198  A    between atoms: _480  and  _481
REMARK  199  A    between atoms: _480  and  _483
REMARK  200  A    between atoms: _483  and  _484
REMARK  201  A    between atoms: _489  and  _491
REMARK  202  A    between atoms: _491  and  _492
REMARK  203  A    between atoms: _491  and  _494
REMARK  204  A    between atoms: _494  and  _495
REMARK  205  A    between atoms: _495  and  _496
REMARK  206  A    between atoms: _496  and  _497
REMARK  207  A    between atoms: _497  and  _498
REMARK  208  A    between atoms: _502  and  _504
REMARK  209  A    between atoms: _504  and  _505
REMARK  210  A    between atoms: _504  and  _507
REMARK  211  A    between atoms: _507  and  _508
REMARK                            x       y       z     vdW  Elec       q    Type
REMARK                         _______ _______ _______ _____ _____    ______ ____
ROOT
ATOM      1  O   HOH     1      26.489 -18.981   8.020  0.00  0.00    +0.000 OA
ENDROOT
TORSDOF 0
REMARK  Name = ../refined-set-2016/1x1z/1x1z_pocket.pdb
REMARK  211 active torsions:
REMARK  status: ('A' for Active; 'I' for Inactive)
REMARK    1  A    between atoms: _1  and  _3
REMARK    2  A    between atoms: _3  and  _4
REMARK    3  A    between atoms: _3  and  _6
REMARK    4  A    between atoms: _6  and  _7
REMARK    5  A    between atoms: _10  and  _12
REMARK    6  A    between atoms: _12  and  _13
REMARK    7  A    between atoms: _12  and  _15
REMARK    8  A    between atoms: _15  and  _16
REMARK    9  A    between atoms: _19  and  _21
REMARK   10  A    between atoms: _21  and  _22
REMARK   11  A    between atoms: _25  and  _27
REMARK   12  A    between atoms: _27  and  _28
REMARK   13  A    between atoms: _27  and  _30
REMARK   14  A    between atoms: _30  and  _31
REMARK   15  A    between atoms: _31  and  _32
REMARK   16  A    between atoms: _34  and  _36
REMARK   17  A    between atoms: _36  and  _37
REMARK   18  A    between atoms: _36  and  _39
REMARK   19  A    between atoms: _39  and  _40
REMARK   20  A    between atoms: _43  and  _45
REMARK   21  A    between atoms: _45  and  _46
REMARK   22  A    between atoms: _45  and  _48
REMARK   23  A    between atoms: _48  and  _49
REMARK   24  A    between atoms: _49  and  _50
REMARK   25  A    between atoms: _50  and  _51
REMARK   26  A    between atoms: _51  and  _52
REMARK   27  A    between atoms: _56  and  _58
REMARK   28  A    between atoms: _58  and  _59
REMARK   29  A    between atoms: _58  and  _61
REMARK   30  A    between atoms: _61  and  _62
REMARK   31  A    between atoms: _65  and  _67
REMARK   32  A    between atoms: _67  and  _68
REMARK   33  A    between atoms: _70  and  _72
REMARK   34  A    between atoms: _72  and  _73
REMARK   35  A    between atoms: _72  and  _75
REMARK   36  A    between atoms: _75  and  _76
REMARK   37  A    between atoms: _81  and  _82
REMARK   38  A    between atoms: _85  and  _86
REMARK   39  A    between atoms: _91  and  _93
REMARK   40  A    between atoms: _93  and  _94
REMARK   41  A    between atoms: _93  and  _96
REMARK   42  A    between atoms: _96  and  _97
REMARK   43  A    between atoms: _100  and  _102
REMARK   44  A    between atoms: _102  and  _103
REMARK   45  A    between atoms: _102  and  _105
REMARK   46  A    between atoms: _105  and  _106
REMARK   47  A    between atoms: _109  and  _111
REMARK   48  A    between atoms: _111  and  _112
REMARK   49  A    between atoms: _111  and  _114
REMARK   50  A    between atoms: _114  and  _115
REMARK   51  A    between atoms: _121  and  _123
REMARK   52  A    between atoms: _123  and  _124
REMARK   53  A    between atoms: _123  and  _126
REMARK   54  A    between atoms: _126  and  _127
REMARK   55  A    between atoms: _127  and  _128
REMARK   56  A    between atoms: _128  and  _129
REMARK   57  A    between atoms: _129  and  _130
REMARK   58  A    between atoms: _134  and  _136
REMARK   59  A    between atoms: _136  and  _137
REMARK   60  A    between atoms: _136  and  _139
REMARK   61  A    between atoms: _139  and  _140
REMARK   62  A    between atoms: _143  and  _145
REMARK   63  A    between atoms: _145  and  _146
REMARK   64  A    between atoms: _145  and  _148
REMARK   65  A    between atoms: _148  and  _149
REMARK   66  A    between atoms: _154  and  _156
REMARK   67  A    between atoms: _156  and  _157
REMARK   68  A    between atoms: _156  and  _159
REMARK   69  A    between atoms: _159  and  _160
REMARK   70  A    between atoms: _163  and  _165
REMARK   71  A    between atoms: _165  and  _166
REMARK   72  A    between atoms: _165  and  _168
REMARK   73  A    between atoms: _168  and  _169
REMARK   74  A    between atoms: _172  and  _174
REMARK   75  A    between atoms: _174  and  _175
REMARK   76  A    between atoms: _174  and  _177
REMARK   77  A    between atoms: _177  and  _178
REMARK   78  A    between atoms: _178  and  _179
REMARK   79  A    between atoms: _182  and  _184
REMARK   80  A    between atoms: _184  and  _185
REMARK   81  A    between atoms: _184  and  _187
REMARK   82  A    between atoms: _187  and  _188
REMARK   83  A    between atoms: _188  and  _189
REMARK   84  A    between atoms: _191  and  _193
REMARK   85  A    between atoms: _193  and  _194
REMARK   86  A    between atoms: _193  and  _196
REMARK   87  A    between atoms: _196  and  _197
REMARK   88  A    between atoms: _199  and  _201
REMARK   89  A    between atoms: _201  and  _202
REMARK   90  A    between atoms: _201  and  _204
REMARK   91  A    between atoms: _204  and  _205
REMARK   92  A    between atoms: _210  and  _212
REMARK   93  A    between atoms: _212  and  _213
REMARK   94  A    between atoms: _216  and  _218
REMARK   95  A    between atoms: _218  and  _219
REMARK   96  A    between atoms: _218  and  _221
REMARK   97  A    between atoms: _221  and  _222
REMARK   98  A    between atoms: _225  and  _227
REMARK   99  A    between atoms: _227  and  _228
REMARK  100  A    between atoms: _227  and  _230
REMARK  101  A    between atoms: _233  and  _235
REMARK  102  A    between atoms: _235  and  _236
REMARK  103  A    between atoms: _239  and  _240
REMARK  104  A    between atoms: _245  and  _247
REMARK  105  A    between atoms: _247  and  _248
REMARK  106  A    between atoms: _247  and  _250
REMARK  107  A    between atoms: _250  and  _251
REMARK  108  A    between atoms: _253  and  _255
REMARK  109  A    between atoms: _255  and  _256
REMARK  110  A    between atoms: _255  and  _258
REMARK  111  A    between atoms: _258  and  _259
REMARK  112  A    between atoms: _262  and  _264
REMARK  113  A    between atoms: _264  and  _265
REMARK  114  A    between atoms: _264  and  _267
REMARK  115  A    between atoms: _267  and  _268
REMARK  116  A    between atoms: _268  and  _269
REMARK  117  A    between atoms: _269  and  _270
REMARK  118  A    between atoms: _279  and  _281
REMARK  119  A    between atoms: _281  and  _282
REMARK  120  A    between atoms: _281  and  _284
REMARK  121  A    between atoms: _284  and  _285
REMARK  122  A    between atoms: _288  and  _290
REMARK  123  A    between atoms: _290  and  _291
REMARK  124  A    between atoms: _290  and  _293
REMARK  125  A    between atoms: _293  and  _294
REMARK  126  A    between atoms: _297  and  _298
REMARK  127  A    between atoms: _303  and  _305
REMARK  128  A    between atoms: _305  and  _306
REMARK  129  A    between atoms: _308  and  _310
REMARK  130  A    between atoms: _310  and  _311
REMARK  131  A    between atoms: _310  and  _313
REMARK  132  A    between atoms: _316  and  _318
REMARK  133  A    between atoms: _318  and  _319
REMARK  134  A    between atoms: _321  and  _323
REMARK  135  A    between atoms: _323  and  _324
REMARK  136  A    between atoms: _327  and  _329
REMARK  137  A    between atoms: _329  and  _330
REMARK  138  A    between atoms: _329  and  _332
REMARK  139  A    between atoms: _332  and  _333
REMARK  140  A    between atoms: _333  and  _334
REMARK  141  A    between atoms: _339  and  _341
REMARK  142  A    between atoms: _341  and  _342
REMARK  143  A    between atoms: _344  and  _346
REMARK  144  A    between atoms: _346  and  _347
REMARK  145  A    between atoms: _349  and  _351
REMARK  146  A    between atoms: _351  and  _352
REMARK  147  A    between atoms: _351  and  _354
REMARK  148  A    between atoms: _354  and  _355
REMARK  149  A    between atoms: _358  and  _360
REMARK  150  A    between atoms: _360  and  _361
REMARK  151  A    between atoms: _360  and  _363
REMARK  152  A    between atoms: _366  and  _368
REMARK  153  A    between atoms: _368  and  _369
REMARK  154  A    between atoms: _371  and  _373
REMARK  155  A    between atoms: _373  and  _374
REMARK  156  A    between atoms: _373  and  _376
REMARK  157  A    between atoms: _376  and  _377
REMARK  158  A    between atoms: _377  and  _378
REMARK  159  A    between atoms: _378  and  _379
REMARK  160  A    between atoms: _388  and  _390
REMARK  161  A    between atoms: _390  and  _391
REMARK  162  A    between atoms: _390  and  _393
REMARK  163  A    between atoms: _393  and  _394
REMARK  164  A    between atoms: _396  and  _398
REMARK  165  A    between atoms: _398  and  _399
REMARK  166  A    between atoms: _398  and  _401
REMARK  167  A    between atoms: _401  and  _402
REMARK  168  A    between atoms: _405  and  _407
REMARK  169  A    between atoms: _407  and  _408
REMARK  170  A    between atoms: _407  and  _410
REMARK  171  A    between atoms: _410  and  _411
REMARK  172  A    between atoms: _416  and  _417
REMARK  173  A    between atoms: _419  and  _421
REMARK  174  A    between atoms: _421  and  _422
REMARK  175  A    between atoms: _421  and  _424
REMARK  176  A    between atoms: _424  and  _425
REMARK  177  A    between atoms: _428  and  _430
REMARK  178  A    between atoms: _430  and  _431
REMARK  179  A    between atoms: _434  and  _436
REMARK  180  A    between atoms: _436  and  _437
REMARK  181  A    between atoms: _436  and  _439
REMARK  182  A    between atoms: _439  and  _440
REMARK  183  A    between atoms: _443  and  _445
REMARK  184  A    between atoms: _445  and  _446
REMARK  185  A    between atoms: _445  and  _448
REMARK  186  A    between atoms: _448  and  _449
REMARK  187  A    between atoms: _453  and  _454
REMARK  188  A    between atoms: _459  and  _461
REMARK  189  A    between atoms: _461  and  _462
REMARK  190  A    between atoms: _461  and  _464
REMARK  191  A    between atoms: _464  and  _465
REMARK  192  A    between atoms: _465  and  _466
REMARK  193  A    between atoms: _469  and  _471
REMARK  194  A    between atoms: _471  and  _472
REMARK  195  A    between atoms: _471  and  _474
REMARK  196  A    between atoms: _474  and  _475
REMARK  197  A    between atoms: _478  and  _480
REMARK  198  A    between atoms: _480  and  _481
REMARK  199  A    between atoms: _480  and  _483
REMARK  200  A    between atoms: _483  and  _484
REMARK  201  A    between atoms: _489  and  _491
REMARK  202  A    between atoms: _491  and  _492
REMARK  203  A    between atoms: _491  and  _494
REMARK  204  A    between atoms: _494  and  _495
REMARK  205  A    between atoms: _495  and  _496
REMARK  206  A    between atoms: _496  and  _497
REMARK  207  A    between atoms: _497  and  _498
REMARK  208  A    between atoms: _502  and  _504
REMARK  209  A    between atoms: _504  and  _505
REMARK  210  A    between atoms: _504  and  _507
REMARK  211  A    between atoms: _507  and  _508
REMARK                            x       y       z     vdW  Elec       q    Type
REMARK                         _______ _______ _______ _____ _____    ______ ____
ROOT
ATOM      1  O   HOH     1      21.780 -14.830  10.856  0.00  0.00    +0.000 OA
ENDROOT
TORSDOF 0
REMARK  Name = ../refined-set-2016/1x1z/1x1z_pocket.pdb
REMARK  211 active torsions:
REMARK  status: ('A' for Active; 'I' for Inactive)
REMARK    1  A    between atoms: _1  and  _3
REMARK    2  A    between atoms: _3  and  _4
REMARK    3  A    between atoms: _3  and  _6
REMARK    4  A    between atoms: _6  and  _7
REMARK    5  A    between atoms: _10  and  _12
REMARK    6  A    between atoms: _12  and  _13
REMARK    7  A    between atoms: _12  and  _15
REMARK    8  A    between atoms: _15  and  _16
REMARK    9  A    between atoms: _19  and  _21
REMARK   10  A    between atoms: _21  and  _22
REMARK   11  A    between atoms: _25  and  _27
REMARK   12  A    between atoms: _27  and  _28
REMARK   13  A    between atoms: _27  and  _30
REMARK   14  A    between atoms: _30  and  _31
REMARK   15  A    between atoms: _31  and  _32
REMARK   16  A    between atoms: _34  and  _36
REMARK   17  A    between atoms: _36  and  _37
REMARK   18  A    between atoms: _36  and  _39
REMARK   19  A    between atoms: _39  and  _40
REMARK   20  A    between atoms: _43  and  _45
REMARK   21  A    between atoms: _45  and  _46
REMARK   22  A    between atoms: _45  and  _48
REMARK   23  A    between atoms: _48  and  _49
REMARK   24  A    between atoms: _49  and  _50
REMARK   25  A    between atoms: _50  and  _51
REMARK   26  A    between atoms: _51  and  _52
REMARK   27  A    between atoms: _56  and  _58
REMARK   28  A    between atoms: _58  and  _59
REMARK   29  A    between atoms: _58  and  _61
REMARK   30  A    between atoms: _61  and  _62
REMARK   31  A    between atoms: _65  and  _67
REMARK   32  A    between atoms: _67  and  _68
REMARK   33  A    between atoms: _70  and  _72
REMARK   34  A    between atoms: _72  and  _73
REMARK   35  A    between atoms: _72  and  _75
REMARK   36  A    between atoms: _75  and  _76
REMARK   37  A    between atoms: _81  and  _82
REMARK   38  A    between atoms: _85  and  _86
REMARK   39  A    between atoms: _91  and  _93
REMARK   40  A    between atoms: _93  and  _94
REMARK   41  A    between atoms: _93  and  _96
REMARK   42  A    between atoms: _96  and  _97
REMARK   43  A    between atoms: _100  and  _102
REMARK   44  A    between atoms: _102  and  _103
REMARK   45  A    between atoms: _102  and  _105
REMARK   46  A    between atoms: _105  and  _106
REMARK   47  A    between atoms: _109  and  _111
REMARK   48  A    between atoms: _111  and  _112
REMARK   49  A    between atoms: _111  and  _114
REMARK   50  A    between atoms: _114  and  _115
REMARK   51  A    between atoms: _121  and  _123
REMARK   52  A    between atoms: _123  and  _124
REMARK   53  A    between atoms: _123  and  _126
REMARK   54  A    between atoms: _126  and  _127
REMARK   55  A    between atoms: _127  and  _128
REMARK   56  A    between atoms: _128  and  _129
REMARK   57  A    between atoms: _129  and  _130
REMARK   58  A    between atoms: _134  and  _136
REMARK   59  A    between atoms: _136  and  _137
REMARK   60  A    between atoms: _136  and  _139
REMARK   61  A    between atoms: _139  and  _140
REMARK   62  A    between atoms: _143  and  _145
REMARK   63  A    between atoms: _145  and  _146
REMARK   64  A    between atoms: _145  and  _148
REMARK   65  A    between atoms: _148  and  _149
REMARK   66  A    between atoms: _154  and  _156
REMARK   67  A    between atoms: _156  and  _157
REMARK   68  A    between atoms: _156  and  _159
REMARK   69  A    between atoms: _159  and  _160
REMARK   70  A    between atoms: _163  and  _165
REMARK   71  A    between atoms: _165  and  _166
REMARK   72  A    between atoms: _165  and  _168
REMARK   73  A    between atoms: _168  and  _169
REMARK   74  A    between atoms: _172  and  _174
REMARK   75  A    between atoms: _174  and  _175
REMARK   76  A    between atoms: _174  and  _177
REMARK   77  A    between atoms: _177  and  _178
REMARK   78  A    between atoms: _178  and  _179
REMARK   79  A    between atoms: _182  and  _184
REMARK   80  A    between atoms: _184  and  _185
REMARK   81  A    between atoms: _184  and  _187
REMARK   82  A    between atoms: _187  and  _188
REMARK   83  A    between atoms: _188  and  _189
REMARK   84  A    between atoms: _191  and  _193
REMARK   85  A    between atoms: _193  and  _194
REMARK   86  A    between atoms: _193  and  _196
REMARK   87  A    between atoms: _196  and  _197
REMARK   88  A    between atoms: _199  and  _201
REMARK   89  A    between atoms: _201  and  _202
REMARK   90  A    between atoms: _201  and  _204
REMARK   91  A    between atoms: _204  and  _205
REMARK   92  A    between atoms: _210  and  _212
REMARK   93  A    between atoms: _212  and  _213
REMARK   94  A    between atoms: _216  and  _218
REMARK   95  A    between atoms: _218  and  _219
REMARK   96  A    between atoms: _218  and  _221
REMARK   97  A    between atoms: _221  and  _222
REMARK   98  A    between atoms: _225  and  _227
REMARK   99  A    between atoms: _227  and  _228
REMARK  100  A    between atoms: _227  and  _230
REMARK  101  A    between atoms: _233  and  _235
REMARK  102  A    between atoms: _235  and  _236
REMARK  103  A    between atoms: _239  and  _240
REMARK  104  A    between atoms: _245  and  _247
REMARK  105  A    between atoms: _247  and  _248
REMARK  106  A    between atoms: _247  and  _250
REMARK  107  A    between atoms: _250  and  _251
REMARK  108  A    between atoms: _253  and  _255
REMARK  109  A    between atoms: _255  and  _256
REMARK  110  A    between atoms: _255  and  _258
REMARK  111  A    between atoms: _258  and  _259
REMARK  112  A    between atoms: _262  and  _264
REMARK  113  A    between atoms: _264  and  _265
REMARK  114  A    between atoms: _264  and  _267
REMARK  115  A    between atoms: _267  and  _268
REMARK  116  A    between atoms: _268  and  _269
REMARK  117  A    between atoms: _269  and  _270
REMARK  118  A    between atoms: _279  and  _281
REMARK  119  A    between atoms: _281  and  _282
REMARK  120  A    between atoms: _281  and  _284
REMARK  121  A    between atoms: _284  and  _285
REMARK  122  A    between atoms: _288  and  _290
REMARK  123  A    between atoms: _290  and  _291
REMARK  124  A    between atoms: _290  and  _293
REMARK  125  A    between atoms: _293  and  _294
REMARK  126  A    between atoms: _297  and  _298
REMARK  127  A    between atoms: _303  and  _305
REMARK  128  A    between atoms: _305  and  _306
REMARK  129  A    between atoms: _308  and  _310
REMARK  130  A    between atoms: _310  and  _311
REMARK  131  A    between atoms: _310  and  _313
REMARK  132  A    between atoms: _316  and  _318
REMARK  133  A    between atoms: _318  and  _319
REMARK  134  A    between atoms: _321  and  _323
REMARK  135  A    between atoms: _323  and  _324
REMARK  136  A    between atoms: _327  and  _329
REMARK  137  A    between atoms: _329  and  _330
REMARK  138  A    between atoms: _329  and  _332
REMARK  139  A    between atoms: _332  and  _333
REMARK  140  A    between atoms: _333  and  _334
REMARK  141  A    between atoms: _339  and  _341
REMARK  142  A    between atoms: _341  and  _342
REMARK  143  A    between atoms: _344  and  _346
REMARK  144  A    between atoms: _346  and  _347
REMARK  145  A    between atoms: _349  and  _351
REMARK  146  A    between atoms: _351  and  _352
REMARK  147  A    between atoms: _351  and  _354
REMARK  148  A    between atoms: _354  and  _355
REMARK  149  A    between atoms: _358  and  _360
REMARK  150  A    between atoms: _360  and  _361
REMARK  151  A    between atoms: _360  and  _363
REMARK  152  A    between atoms: _366  and  _368
REMARK  153  A    between atoms: _368  and  _369
REMARK  154  A    between atoms: _371  and  _373
REMARK  155  A    between atoms: _373  and  _374
REMARK  156  A    between atoms: _373  and  _376
REMARK  157  A    between atoms: _376  and  _377
REMARK  158  A    between atoms: _377  and  _378
REMARK  159  A    between atoms: _378  and  _379
REMARK  160  A    between atoms: _388  and  _390
REMARK  161  A    between atoms: _390  and  _391
REMARK  162  A    between atoms: _390  and  _393
REMARK  163  A    between atoms: _393  and  _394
REMARK  164  A    between atoms: _396  and  _398
REMARK  165  A    between atoms: _398  and  _399
REMARK  166  A    between atoms: _398  and  _401
REMARK  167  A    between atoms: _401  and  _402
REMARK  168  A    between atoms: _405  and  _407
REMARK  169  A    between atoms: _407  and  _408
REMARK  170  A    between atoms: _407  and  _410
REMARK  171  A    between atoms: _410  and  _411
REMARK  172  A    between atoms: _416  and  _417
REMARK  173  A    between atoms: _419  and  _421
REMARK  174  A    between atoms: _421  and  _422
REMARK  175  A    between atoms: _421  and  _424
REMARK  176  A    between atoms: _424  and  _425
REMARK  177  A    between atoms: _428  and  _430
REMARK  178  A    between atoms: _430  and  _431
REMARK  179  A    between atoms: _434  and  _436
REMARK  180  A    between atoms: _436  and  _437
REMARK  181  A    between atoms: _436  and  _439
REMARK  182  A    between atoms: _439  and  _440
REMARK  183  A    between atoms: _443  and  _445
REMARK  184  A    between atoms: _445  and  _446
REMARK  185  A    between atoms: _445  and  _448
REMARK  186  A    between atoms: _448  and  _449
REMARK  187  A    between atoms: _453  and  _454
REMARK  188  A    between atoms: _459  and  _461
REMARK  189  A    between atoms: _461  and  _462
REMARK  190  A    between atoms: _461  and  _464
REMARK  191  A    between atoms: _464  and  _465
REMARK  192  A    between atoms: _465  and  _466
REMARK  193  A    between atoms: _469  and  _471
REMARK  194  A    between atoms: _471  and  _472
REMARK  195  A    between atoms: _471  and  _474
REMARK  196  A    between atoms: _474  and  _475
REMARK  197  A    between atoms: _478  and  _480
REMARK  198  A    between atoms: _480  and  _481
REMARK  199  A    between atoms: _480  and  _483
REMARK  200  A    between atoms: _483  and  _484
REMARK  201  A    between atoms: _489  and  _491
REMARK  202  A    between atoms: _491  and  _492
REMARK  203  A    between atoms: _491  and  _494
REMARK  204  A    between atoms: _494  and  _495
REMARK  205  A    between atoms: _495  and  _496
REMARK  206  A    between atoms: _496  and  _497
REMARK  207  A    between atoms: _497  and  _498
REMARK  208  A    between atoms: _502  and  _504
REMARK  209  A    between atoms: _504  and  _505
REMARK  210  A    between atoms: _504  and  _507
REMARK  211  A    between atoms: _507  and  _508
REMARK                            x       y       z     vdW  Elec       q    Type
REMARK                         _______ _______ _______ _____ _____    ______ ____
ROOT
ATOM      1  O   HOH     1      19.820 -19.904  14.259  0.00  0.00    +0.000 OA
ENDROOT
TORSDOF 0
REMARK  Name = ../refined-set-2016/1x1z/1x1z_pocket.pdb
REMARK  211 active torsions:
REMARK  status: ('A' for Active; 'I' for Inactive)
REMARK    1  A    between atoms: _1  and  _3
REMARK    2  A    between atoms: _3  and  _4
REMARK    3  A    between atoms: _3  and  _6
REMARK    4  A    between atoms: _6  and  _7
REMARK    5  A    between atoms: _10  and  _12
REMARK    6  A    between atoms: _12  and  _13
REMARK    7  A    between atoms: _12  and  _15
REMARK    8  A    between atoms: _15  and  _16
REMARK    9  A    between atoms: _19  and  _21
REMARK   10  A    between atoms: _21  and  _22
REMARK   11  A    between atoms: _25  and  _27
REMARK   12  A    between atoms: _27  and  _28
REMARK   13  A    between atoms: _27  and  _30
REMARK   14  A    between atoms: _30  and  _31
REMARK   15  A    between atoms: _31  and  _32
REMARK   16  A    between atoms: _34  and  _36
REMARK   17  A    between atoms: _36  and  _37
REMARK   18  A    between atoms: _36  and  _39
REMARK   19  A    between atoms: _39  and  _40
REMARK   20  A    between atoms: _43  and  _45
REMARK   21  A    between atoms: _45  and  _46
REMARK   22  A    between atoms: _45  and  _48
REMARK   23  A    between atoms: _48  and  _49
REMARK   24  A    between atoms: _49  and  _50
REMARK   25  A    between atoms: _50  and  _51
REMARK   26  A    between atoms: _51  and  _52
REMARK   27  A    between atoms: _56  and  _58
REMARK   28  A    between atoms: _58  and  _59
REMARK   29  A    between atoms: _58  and  _61
REMARK   30  A    between atoms: _61  and  _62
REMARK   31  A    between atoms: _65  and  _67
REMARK   32  A    between atoms: _67  and  _68
REMARK   33  A    between atoms: _70  and  _72
REMARK   34  A    between atoms: _72  and  _73
REMARK   35  A    between atoms: _72  and  _75
REMARK   36  A    between atoms: _75  and  _76
REMARK   37  A    between atoms: _81  and  _82
REMARK   38  A    between atoms: _85  and  _86
REMARK   39  A    between atoms: _91  and  _93
REMARK   40  A    between atoms: _93  and  _94
REMARK   41  A    between atoms: _93  and  _96
REMARK   42  A    between atoms: _96  and  _97
REMARK   43  A    between atoms: _100  and  _102
REMARK   44  A    between atoms: _102  and  _103
REMARK   45  A    between atoms: _102  and  _105
REMARK   46  A    between atoms: _105  and  _106
REMARK   47  A    between atoms: _109  and  _111
REMARK   48  A    between atoms: _111  and  _112
REMARK   49  A    between atoms: _111  and  _114
REMARK   50  A    between atoms: _114  and  _115
REMARK   51  A    between atoms: _121  and  _123
REMARK   52  A    between atoms: _123  and  _124
REMARK   53  A    between atoms: _123  and  _126
REMARK   54  A    between atoms: _126  and  _127
REMARK   55  A    between atoms: _127  and  _128
REMARK   56  A    between atoms: _128  and  _129
REMARK   57  A    between atoms: _129  and  _130
REMARK   58  A    between atoms: _134  and  _136
REMARK   59  A    between atoms: _136  and  _137
REMARK   60  A    between atoms: _136  and  _139
REMARK   61  A    between atoms: _139  and  _140
REMARK   62  A    between atoms: _143  and  _145
REMARK   63  A    between atoms: _145  and  _146
REMARK   64  A    between atoms: _145  and  _148
REMARK   65  A    between atoms: _148  and  _149
REMARK   66  A    between atoms: _154  and  _156
REMARK   67  A    between atoms: _156  and  _157
REMARK   68  A    between atoms: _156  and  _159
REMARK   69  A    between atoms: _159  and  _160
REMARK   70  A    between atoms: _163  and  _165
REMARK   71  A    between atoms: _165  and  _166
REMARK   72  A    between atoms: _165  and  _168
REMARK   73  A    between atoms: _168  and  _169
REMARK   74  A    between atoms: _172  and  _174
REMARK   75  A    between atoms: _174  and  _175
REMARK   76  A    between atoms: _174  and  _177
REMARK   77  A    between atoms: _177  and  _178
REMARK   78  A    between atoms: _178  and  _179
REMARK   79  A    between atoms: _182  and  _184
REMARK   80  A    between atoms: _184  and  _185
REMARK   81  A    between atoms: _184  and  _187
REMARK   82  A    between atoms: _187  and  _188
REMARK   83  A    between atoms: _188  and  _189
REMARK   84  A    between atoms: _191  and  _193
REMARK   85  A    between atoms: _193  and  _194
REMARK   86  A    between atoms: _193  and  _196
REMARK   87  A    between atoms: _196  and  _197
REMARK   88  A    between atoms: _199  and  _201
REMARK   89  A    between atoms: _201  and  _202
REMARK   90  A    between atoms: _201  and  _204
REMARK   91  A    between atoms: _204  and  _205
REMARK   92  A    between atoms: _210  and  _212
REMARK   93  A    between atoms: _212  and  _213
REMARK   94  A    between atoms: _216  and  _218
REMARK   95  A    between atoms: _218  and  _219
REMARK   96  A    between atoms: _218  and  _221
REMARK   97  A    between atoms: _221  and  _222
REMARK   98  A    between atoms: _225  and  _227
REMARK   99  A    between atoms: _227  and  _228
REMARK  100  A    between atoms: _227  and  _230
REMARK  101  A    between atoms: _233  and  _235
REMARK  102  A    between atoms: _235  and  _236
REMARK  103  A    between atoms: _239  and  _240
REMARK  104  A    between atoms: _245  and  _247
REMARK  105  A    between atoms: _247  and  _248
REMARK  106  A    between atoms: _247  and  _250
REMARK  107  A    between atoms: _250  and  _251
REMARK  108  A    between atoms: _253  and  _255
REMARK  109  A    between atoms: _255  and  _256
REMARK  110  A    between atoms: _255  and  _258
REMARK  111  A    between atoms: _258  and  _259
REMARK  112  A    between atoms: _262  and  _264
REMARK  113  A    between atoms: _264  and  _265
REMARK  114  A    between atoms: _264  and  _267
REMARK  115  A    between atoms: _267  and  _268
REMARK  116  A    between atoms: _268  and  _269
REMARK  117  A    between atoms: _269  and  _270
REMARK  118  A    between atoms: _279  and  _281
REMARK  119  A    between atoms: _281  and  _282
REMARK  120  A    between atoms: _281  and  _284
REMARK  121  A    between atoms: _284  and  _285
REMARK  122  A    between atoms: _288  and  _290
REMARK  123  A    between atoms: _290  and  _291
REMARK  124  A    between atoms: _290  and  _293
REMARK  125  A    between atoms: _293  and  _294
REMARK  126  A    between atoms: _297  and  _298
REMARK  127  A    between atoms: _303  and  _305
REMARK  128  A    between atoms: _305  and  _306
REMARK  129  A    between atoms: _308  and  _310
REMARK  130  A    between atoms: _310  and  _311
REMARK  131  A    between atoms: _310  and  _313
REMARK  132  A    between atoms: _316  and  _318
REMARK  133  A    between atoms: _318  and  _319
REMARK  134  A    between atoms: _321  and  _323
REMARK  135  A    between atoms: _323  and  _324
REMARK  136  A    between atoms: _327  and  _329
REMARK  137  A    between atoms: _329  and  _330
REMARK  138  A    between atoms: _329  and  _332
REMARK  139  A    between atoms: _332  and  _333
REMARK  140  A    between atoms: _333  and  _334
REMARK  141  A    between atoms: _339  and  _341
REMARK  142  A    between atoms: _341  and  _342
REMARK  143  A    between atoms: _344  and  _346
REMARK  144  A    between atoms: _346  and  _347
REMARK  145  A    between atoms: _349  and  _351
REMARK  146  A    between atoms: _351  and  _352
REMARK  147  A    between atoms: _351  and  _354
REMARK  148  A    between atoms: _354  and  _355
REMARK  149  A    between atoms: _358  and  _360
REMARK  150  A    between atoms: _360  and  _361
REMARK  151  A    between atoms: _360  and  _363
REMARK  152  A    between atoms: _366  and  _368
REMARK  153  A    between atoms: _368  and  _369
REMARK  154  A    between atoms: _371  and  _373
REMARK  155  A    between atoms: _373  and  _374
REMARK  156  A    between atoms: _373  and  _376
REMARK  157  A    between atoms: _376  and  _377
REMARK  158  A    between atoms: _377  and  _378
REMARK  159  A    between atoms: _378  and  _379
REMARK  160  A    between atoms: _388  and  _390
REMARK  161  A    between atoms: _390  and  _391
REMARK  162  A    between atoms: _390  and  _393
REMARK  163  A    between atoms: _393  and  _394
REMARK  164  A    between atoms: _396  and  _398
REMARK  165  A    between atoms: _398  and  _399
REMARK  166  A    between atoms: _398  and  _401
REMARK  167  A    between atoms: _401  and  _402
REMARK  168  A    between atoms: _405  and  _407
REMARK  169  A    between atoms: _407  and  _408
REMARK  170  A    between atoms: _407  and  _410
REMARK  171  A    between atoms: _410  and  _411
REMARK  172  A    between atoms: _416  and  _417
REMARK  173  A    between atoms: _419  and  _421
REMARK  174  A    between atoms: _421  and  _422
REMARK  175  A    between atoms: _421  and  _424
REMARK  176  A    between atoms: _424  and  _425
REMARK  177  A    between atoms: _428  and  _430
REMARK  178  A    between atoms: _430  and  _431
REMARK  179  A    between atoms: _434  and  _436
REMARK  180  A    between atoms: _436  and  _437
REMARK  181  A    between atoms: _436  and  _439
REMARK  182  A    between atoms: _439  and  _440
REMARK  183  A    between atoms: _443  and  _445
REMARK  184  A    between atoms: _445  and  _446
REMARK  185  A    between atoms: _445  and  _448
REMARK  186  A    between atoms: _448  and  _449
REMARK  187  A    between atoms: _453  and  _454
REMARK  188  A    between atoms: _459  and  _461
REMARK  189  A    between atoms: _461  and  _462
REMARK  190  A    between atoms: _461  and  _464
REMARK  191  A    between atoms: _464  and  _465
REMARK  192  A    between atoms: _465  and  _466
REMARK  193  A    between atoms: _469  and  _471
REMARK  194  A    between atoms: _471  and  _472
REMARK  195  A    between atoms: _471  and  _474
REMARK  196  A    between atoms: _474  and  _475
REMARK  197  A    between atoms: _478  and  _480
REMARK  198  A    between atoms: _480  and  _481
REMARK  199  A    between atoms: _480  and  _483
REMARK  200  A    between atoms: _483  and  _484
REMARK  201  A    between atoms: _489  and  _491
REMARK  202  A    between atoms: _491  and  _492
REMARK  203  A    between atoms: _491  and  _494
REMARK  204  A    between atoms: _494  and  _495
REMARK  205  A    between atoms: _495  and  _496
REMARK  206  A    between atoms: _496  and  _497
REMARK  207  A    between atoms: _497  and  _498
REMARK  208  A    between atoms: _502  and  _504
REMARK  209  A    between atoms: _504  and  _505
REMARK  210  A    between atoms: _504  and  _507
REMARK  211  A    between atoms: _507  and  _508
REMARK                            x       y       z     vdW  Elec       q    Type
REMARK                         _______ _______ _______ _____ _____    ______ ____
ROOT
ATOM      1  O   HOH     1      21.755 -17.617  16.437  0.00  0.00    +0.000 OA
ENDROOT
TORSDOF 0
REMARK  Name = ../refined-set-2016/1x1z/1x1z_pocket.pdb
REMARK  211 active torsions:
REMARK  status: ('A' for Active; 'I' for Inactive)
REMARK    1  A    between atoms: _1  and  _3
REMARK    2  A    between atoms: _3  and  _4
REMARK    3  A    between atoms: _3  and  _6
REMARK    4  A    between atoms: _6  and  _7
REMARK    5  A    between atoms: _10  and  _12
REMARK    6  A    between atoms: _12  and  _13
REMARK    7  A    between atoms: _12  and  _15
REMARK    8  A    between atoms: _15  and  _16
REMARK    9  A    between atoms: _19  and  _21
REMARK   10  A    between atoms: _21  and  _22
REMARK   11  A    between atoms: _25  and  _27
REMARK   12  A    between atoms: _27  and  _28
REMARK   13  A    between atoms: _27  and  _30
REMARK   14  A    between atoms: _30  and  _31
REMARK   15  A    between atoms: _31  and  _32
REMARK   16  A    between atoms: _34  and  _36
REMARK   17  A    between atoms: _36  and  _37
REMARK   18  A    between atoms: _36  and  _39
REMARK   19  A    between atoms: _39  and  _40
REMARK   20  A    between atoms: _43  and  _45
REMARK   21  A    between atoms: _45  and  _46
REMARK   22  A    between atoms: _45  and  _48
REMARK   23  A    between atoms: _48  and  _49
REMARK   24  A    between atoms: _49  and  _50
REMARK   25  A    between atoms: _50  and  _51
REMARK   26  A    between atoms: _51  and  _52
REMARK   27  A    between atoms: _56  and  _58
REMARK   28  A    between atoms: _58  and  _59
REMARK   29  A    between atoms: _58  and  _61
REMARK   30  A    between atoms: _61  and  _62
REMARK   31  A    between atoms: _65  and  _67
REMARK   32  A    between atoms: _67  and  _68
REMARK   33  A    between atoms: _70  and  _72
REMARK   34  A    between atoms: _72  and  _73
REMARK   35  A    between atoms: _72  and  _75
REMARK   36  A    between atoms: _75  and  _76
REMARK   37  A    between atoms: _81  and  _82
REMARK   38  A    between atoms: _85  and  _86
REMARK   39  A    between atoms: _91  and  _93
REMARK   40  A    between atoms: _93  and  _94
REMARK   41  A    between atoms: _93  and  _96
REMARK   42  A    between atoms: _96  and  _97
REMARK   43  A    between atoms: _100  and  _102
REMARK   44  A    between atoms: _102  and  _103
REMARK   45  A    between atoms: _102  and  _105
REMARK   46  A    between atoms: _105  and  _106
REMARK   47  A    between atoms: _109  and  _111
REMARK   48  A    between atoms: _111  and  _112
REMARK   49  A    between atoms: _111  and  _114
REMARK   50  A    between atoms: _114  and  _115
REMARK   51  A    between atoms: _121  and  _123
REMARK   52  A    between atoms: _123  and  _124
REMARK   53  A    between atoms: _123  and  _126
REMARK   54  A    between atoms: _126  and  _127
REMARK   55  A    between atoms: _127  and  _128
REMARK   56  A    between atoms: _128  and  _129
REMARK   57  A    between atoms: _129  and  _130
REMARK   58  A    between atoms: _134  and  _136
REMARK   59  A    between atoms: _136  and  _137
REMARK   60  A    between atoms: _136  and  _139
REMARK   61  A    between atoms: _139  and  _140
REMARK   62  A    between atoms: _143  and  _145
REMARK   63  A    between atoms: _145  and  _146
REMARK   64  A    between atoms: _145  and  _148
REMARK   65  A    between atoms: _148  and  _149
REMARK   66  A    between atoms: _154  and  _156
REMARK   67  A    between atoms: _156  and  _157
REMARK   68  A    between atoms: _156  and  _159
REMARK   69  A    between atoms: _159  and  _160
REMARK   70  A    between atoms: _163  and  _165
REMARK   71  A    between atoms: _165  and  _166
REMARK   72  A    between atoms: _165  and  _168
REMARK   73  A    between atoms: _168  and  _169
REMARK   74  A    between atoms: _172  and  _174
REMARK   75  A    between atoms: _174  and  _175
REMARK   76  A    between atoms: _174  and  _177
REMARK   77  A    between atoms: _177  and  _178
REMARK   78  A    between atoms: _178  and  _179
REMARK   79  A    between atoms: _182  and  _184
REMARK   80  A    between atoms: _184  and  _185
REMARK   81  A    between atoms: _184  and  _187
REMARK   82  A    between atoms: _187  and  _188
REMARK   83  A    between atoms: _188  and  _189
REMARK   84  A    between atoms: _191  and  _193
REMARK   85  A    between atoms: _193  and  _194
REMARK   86  A    between atoms: _193  and  _196
REMARK   87  A    between atoms: _196  and  _197
REMARK   88  A    between atoms: _199  and  _201
REMARK   89  A    between atoms: _201  and  _202
REMARK   90  A    between atoms: _201  and  _204
REMARK   91  A    between atoms: _204  and  _205
REMARK   92  A    between atoms: _210  and  _212
REMARK   93  A    between atoms: _212  and  _213
REMARK   94  A    between atoms: _216  and  _218
REMARK   95  A    between atoms: _218  and  _219
REMARK   96  A    between atoms: _218  and  _221
REMARK   97  A    between atoms: _221  and  _222
REMARK   98  A    between atoms: _225  and  _227
REMARK   99  A    between atoms: _227  and  _228
REMARK  100  A    between atoms: _227  and  _230
REMARK  101  A    between atoms: _233  and  _235
REMARK  102  A    between atoms: _235  and  _236
REMARK  103  A    between atoms: _239  and  _240
REMARK  104  A    between atoms: _245  and  _247
REMARK  105  A    between atoms: _247  and  _248
REMARK  106  A    between atoms: _247  and  _250
REMARK  107  A    between atoms: _250  and  _251
REMARK  108  A    between atoms: _253  and  _255
REMARK  109  A    between atoms: _255  and  _256
REMARK  110  A    between atoms: _255  and  _258
REMARK  111  A    between atoms: _258  and  _259
REMARK  112  A    between atoms: _262  and  _264
REMARK  113  A    between atoms: _264  and  _265
REMARK  114  A    between atoms: _264  and  _267
REMARK  115  A    between atoms: _267  and  _268
REMARK  116  A    between atoms: _268  and  _269
REMARK  117  A    between atoms: _269  and  _270
REMARK  118  A    between atoms: _279  and  _281
REMARK  119  A    between atoms: _281  and  _282
REMARK  120  A    between atoms: _281  and  _284
REMARK  121  A    between atoms: _284  and  _285
REMARK  122  A    between atoms: _288  and  _290
REMARK  123  A    between atoms: _290  and  _291
REMARK  124  A    between atoms: _290  and  _293
REMARK  125  A    between atoms: _293  and  _294
REMARK  126  A    between atoms: _297  and  _298
REMARK  127  A    between atoms: _303  and  _305
REMARK  128  A    between atoms: _305  and  _306
REMARK  129  A    between atoms: _308  and  _310
REMARK  130  A    between atoms: _310  and  _311
REMARK  131  A    between atoms: _310  and  _313
REMARK  132  A    between atoms: _316  and  _318
REMARK  133  A    between atoms: _318  and  _319
REMARK  134  A    between atoms: _321  and  _323
REMARK  135  A    between atoms: _323  and  _324
REMARK  136  A    between atoms: _327  and  _329
REMARK  137  A    between atoms: _329  and  _330
REMARK  138  A    between atoms: _329  and  _332
REMARK  139  A    between atoms: _332  and  _333
REMARK  140  A    between atoms: _333  and  _334
REMARK  141  A    between atoms: _339  and  _341
REMARK  142  A    between atoms: _341  and  _342
REMARK  143  A    between atoms: _344  and  _346
REMARK  144  A    between atoms: _346  and  _347
REMARK  145  A    between atoms: _349  and  _351
REMARK  146  A    between atoms: _351  and  _352
REMARK  147  A    between atoms: _351  and  _354
REMARK  148  A    between atoms: _354  and  _355
REMARK  149  A    between atoms: _358  and  _360
REMARK  150  A    between atoms: _360  and  _361
REMARK  151  A    between atoms: _360  and  _363
REMARK  152  A    between atoms: _366  and  _368
REMARK  153  A    between atoms: _368  and  _369
REMARK  154  A    between atoms: _371  and  _373
REMARK  155  A    between atoms: _373  and  _374
REMARK  156  A    between atoms: _373  and  _376
REMARK  157  A    between atoms: _376  and  _377
REMARK  158  A    between atoms: _377  and  _378
REMARK  159  A    between atoms: _378  and  _379
REMARK  160  A    between atoms: _388  and  _390
REMARK  161  A    between atoms: _390  and  _391
REMARK  162  A    between atoms: _390  and  _393
REMARK  163  A    between atoms: _393  and  _394
REMARK  164  A    between atoms: _396  and  _398
REMARK  165  A    between atoms: _398  and  _399
REMARK  166  A    between atoms: _398  and  _401
REMARK  167  A    between atoms: _401  and  _402
REMARK  168  A    between atoms: _405  and  _407
REMARK  169  A    between atoms: _407  and  _408
REMARK  170  A    between atoms: _407  and  _410
REMARK  171  A    between atoms: _410  and  _411
REMARK  172  A    between atoms: _416  and  _417
REMARK  173  A    between atoms: _419  and  _421
REMARK  174  A    between atoms: _421  and  _422
REMARK  175  A    between atoms: _421  and  _424
REMARK  176  A    between atoms: _424  and  _425
REMARK  177  A    between atoms: _428  and  _430
REMARK  178  A    between atoms: _430  and  _431
REMARK  179  A    between atoms: _434  and  _436
REMARK  180  A    between atoms: _436  and  _437
REMARK  181  A    between atoms: _436  and  _439
REMARK  182  A    between atoms: _439  and  _440
REMARK  183  A    between atoms: _443  and  _445
REMARK  184  A    between atoms: _445  and  _446
REMARK  185  A    between atoms: _445  and  _448
REMARK  186  A    between atoms: _448  and  _449
REMARK  187  A    between atoms: _453  and  _454
REMARK  188  A    between atoms: _459  and  _461
REMARK  189  A    between atoms: _461  and  _462
REMARK  190  A    between atoms: _461  and  _464
REMARK  191  A    between atoms: _464  and  _465
REMARK  192  A    between atoms: _465  and  _466
REMARK  193  A    between atoms: _469  and  _471
REMARK  194  A    between atoms: _471  and  _472
REMARK  195  A    between atoms: _471  and  _474
REMARK  196  A    between atoms: _474  and  _475
REMARK  197  A    between atoms: _478  and  _480
REMARK  198  A    between atoms: _480  and  _481
REMARK  199  A    between atoms: _480  and  _483
REMARK  200  A    between atoms: _483  and  _484
REMARK  201  A    between atoms: _489  and  _491
REMARK  202  A    between atoms: _491  and  _492
REMARK  203  A    between atoms: _491  and  _494
REMARK  204  A    between atoms: _494  and  _495
REMARK  205  A    between atoms: _495  and  _496
REMARK  206  A    between atoms: _496  and  _497
REMARK  207  A    between atoms: _497  and  _498
REMARK  208  A    between atoms: _502  and  _504
REMARK  209  A    between atoms: _504  and  _505
REMARK  210  A    between atoms: _504  and  _507
REMARK  211  A    between atoms: _507  and  _508
REMARK                            x       y       z     vdW  Elec       q    Type
REMARK                         _______ _______ _______ _____ _____    ______ ____
ROOT
ATOM      1  O   HOH     1      21.436 -17.807  19.273  0.00  0.00    +0.000 OA
ENDROOT
TORSDOF 0
REMARK  Name = ../refined-set-2016/1x1z/1x1z_pocket.pdb
REMARK  211 active torsions:
REMARK  status: ('A' for Active; 'I' for Inactive)
REMARK    1  A    between atoms: _1  and  _3
REMARK    2  A    between atoms: _3  and  _4
REMARK    3  A    between atoms: _3  and  _6
REMARK    4  A    between atoms: _6  and  _7
REMARK    5  A    between atoms: _10  and  _12
REMARK    6  A    between atoms: _12  and  _13
REMARK    7  A    between atoms: _12  and  _15
REMARK    8  A    between atoms: _15  and  _16
REMARK    9  A    between atoms: _19  and  _21
REMARK   10  A    between atoms: _21  and  _22
REMARK   11  A    between atoms: _25  and  _27
REMARK   12  A    between atoms: _27  and  _28
REMARK   13  A    between atoms: _27  and  _30
REMARK   14  A    between atoms: _30  and  _31
REMARK   15  A    between atoms: _31  and  _32
REMARK   16  A    between atoms: _34  and  _36
REMARK   17  A    between atoms: _36  and  _37
REMARK   18  A    between atoms: _36  and  _39
REMARK   19  A    between atoms: _39  and  _40
REMARK   20  A    between atoms: _43  and  _45
REMARK   21  A    between atoms: _45  and  _46
REMARK   22  A    between atoms: _45  and  _48
REMARK   23  A    between atoms: _48  and  _49
REMARK   24  A    between atoms: _49  and  _50
REMARK   25  A    between atoms: _50  and  _51
REMARK   26  A    between atoms: _51  and  _52
REMARK   27  A    between atoms: _56  and  _58
REMARK   28  A    between atoms: _58  and  _59
REMARK   29  A    between atoms: _58  and  _61
REMARK   30  A    between atoms: _61  and  _62
REMARK   31  A    between atoms: _65  and  _67
REMARK   32  A    between atoms: _67  and  _68
REMARK   33  A    between atoms: _70  and  _72
REMARK   34  A    between atoms: _72  and  _73
REMARK   35  A    between atoms: _72  and  _75
REMARK   36  A    between atoms: _75  and  _76
REMARK   37  A    between atoms: _81  and  _82
REMARK   38  A    between atoms: _85  and  _86
REMARK   39  A    between atoms: _91  and  _93
REMARK   40  A    between atoms: _93  and  _94
REMARK   41  A    between atoms: _93  and  _96
REMARK   42  A    between atoms: _96  and  _97
REMARK   43  A    between atoms: _100  and  _102
REMARK   44  A    between atoms: _102  and  _103
REMARK   45  A    between atoms: _102  and  _105
REMARK   46  A    between atoms: _105  and  _106
REMARK   47  A    between atoms: _109  and  _111
REMARK   48  A    between atoms: _111  and  _112
REMARK   49  A    between atoms: _111  and  _114
REMARK   50  A    between atoms: _114  and  _115
REMARK   51  A    between atoms: _121  and  _123
REMARK   52  A    between atoms: _123  and  _124
REMARK   53  A    between atoms: _123  and  _126
REMARK   54  A    between atoms: _126  and  _127
REMARK   55  A    between atoms: _127  and  _128
REMARK   56  A    between atoms: _128  and  _129
REMARK   57  A    between atoms: _129  and  _130
REMARK   58  A    between atoms: _134  and  _136
REMARK   59  A    between atoms: _136  and  _137
REMARK   60  A    between atoms: _136  and  _139
REMARK   61  A    between atoms: _139  and  _140
REMARK   62  A    between atoms: _143  and  _145
REMARK   63  A    between atoms: _145  and  _146
REMARK   64  A    between atoms: _145  and  _148
REMARK   65  A    between atoms: _148  and  _149
REMARK   66  A    between atoms: _154  and  _156
REMARK   67  A    between atoms: _156  and  _157
REMARK   68  A    between atoms: _156  and  _159
REMARK   69  A    between atoms: _159  and  _160
REMARK   70  A    between atoms: _163  and  _165
REMARK   71  A    between atoms: _165  and  _166
REMARK   72  A    between atoms: _165  and  _168
REMARK   73  A    between atoms: _168  and  _169
REMARK   74  A    between atoms: _172  and  _174
REMARK   75  A    between atoms: _174  and  _175
REMARK   76  A    between atoms: _174  and  _177
REMARK   77  A    between atoms: _177  and  _178
REMARK   78  A    between atoms: _178  and  _179
REMARK   79  A    between atoms: _182  and  _184
REMARK   80  A    between atoms: _184  and  _185
REMARK   81  A    between atoms: _184  and  _187
REMARK   82  A    between atoms: _187  and  _188
REMARK   83  A    between atoms: _188  and  _189
REMARK   84  A    between atoms: _191  and  _193
REMARK   85  A    between atoms: _193  and  _194
REMARK   86  A    between atoms: _193  and  _196
REMARK   87  A    between atoms: _196  and  _197
REMARK   88  A    between atoms: _199  and  _201
REMARK   89  A    between atoms: _201  and  _202
REMARK   90  A    between atoms: _201  and  _204
REMARK   91  A    between atoms: _204  and  _205
REMARK   92  A    between atoms: _210  and  _212
REMARK   93  A    between atoms: _212  and  _213
REMARK   94  A    between atoms: _216  and  _218
REMARK   95  A    between atoms: _218  and  _219
REMARK   96  A    between atoms: _218  and  _221
REMARK   97  A    between atoms: _221  and  _222
REMARK   98  A    between atoms: _225  and  _227
REMARK   99  A    between atoms: _227  and  _228
REMARK  100  A    between atoms: _227  and  _230
REMARK  101  A    between atoms: _233  and  _235
REMARK  102  A    between atoms: _235  and  _236
REMARK  103  A    between atoms: _239  and  _240
REMARK  104  A    between atoms: _245  and  _247
REMARK  105  A    between atoms: _247  and  _248
REMARK  106  A    between atoms: _247  and  _250
REMARK  107  A    between atoms: _250  and  _251
REMARK  108  A    between atoms: _253  and  _255
REMARK  109  A    between atoms: _255  and  _256
REMARK  110  A    between atoms: _255  and  _258
REMARK  111  A    between atoms: _258  and  _259
REMARK  112  A    between atoms: _262  and  _264
REMARK  113  A    between atoms: _264  and  _265
REMARK  114  A    between atoms: _264  and  _267
REMARK  115  A    between atoms: _267  and  _268
REMARK  116  A    between atoms: _268  and  _269
REMARK  117  A    between atoms: _269  and  _270
REMARK  118  A    between atoms: _279  and  _281
REMARK  119  A    between atoms: _281  and  _282
REMARK  120  A    between atoms: _281  and  _284
REMARK  121  A    between atoms: _284  and  _285
REMARK  122  A    between atoms: _288  and  _290
REMARK  123  A    between atoms: _290  and  _291
REMARK  124  A    between atoms: _290  and  _293
REMARK  125  A    between atoms: _293  and  _294
REMARK  126  A    between atoms: _297  and  _298
REMARK  127  A    between atoms: _303  and  _305
REMARK  128  A    between atoms: _305  and  _306
REMARK  129  A    between atoms: _308  and  _310
REMARK  130  A    between atoms: _310  and  _311
REMARK  131  A    between atoms: _310  and  _313
REMARK  132  A    between atoms: _316  and  _318
REMARK  133  A    between atoms: _318  and  _319
REMARK  134  A    between atoms: _321  and  _323
REMARK  135  A    between atoms: _323  and  _324
REMARK  136  A    between atoms: _327  and  _329
REMARK  137  A    between atoms: _329  and  _330
REMARK  138  A    between atoms: _329  and  _332
REMARK  139  A    between atoms: _332  and  _333
REMARK  140  A    between atoms: _333  and  _334
REMARK  141  A    between atoms: _339  and  _341
REMARK  142  A    between atoms: _341  and  _342
REMARK  143  A    between atoms: _344  and  _346
REMARK  144  A    between atoms: _346  and  _347
REMARK  145  A    between atoms: _349  and  _351
REMARK  146  A    between atoms: _351  and  _352
REMARK  147  A    between atoms: _351  and  _354
REMARK  148  A    between atoms: _354  and  _355
REMARK  149  A    between atoms: _358  and  _360
REMARK  150  A    between atoms: _360  and  _361
REMARK  151  A    between atoms: _360  and  _363
REMARK  152  A    between atoms: _366  and  _368
REMARK  153  A    between atoms: _368  and  _369
REMARK  154  A    between atoms: _371  and  _373
REMARK  155  A    between atoms: _373  and  _374
REMARK  156  A    between atoms: _373  and  _376
REMARK  157  A    between atoms: _376  and  _377
REMARK  158  A    between atoms: _377  and  _378
REMARK  159  A    between atoms: _378  and  _379
REMARK  160  A    between atoms: _388  and  _390
REMARK  161  A    between atoms: _390  and  _391
REMARK  162  A    between atoms: _390  and  _393
REMARK  163  A    between atoms: _393  and  _394
REMARK  164  A    between atoms: _396  and  _398
REMARK  165  A    between atoms: _398  and  _399
REMARK  166  A    between atoms: _398  and  _401
REMARK  167  A    between atoms: _401  and  _402
REMARK  168  A    between atoms: _405  and  _407
REMARK  169  A    between atoms: _407  and  _408
REMARK  170  A    between atoms: _407  and  _410
REMARK  171  A    between atoms: _410  and  _411
REMARK  172  A    between atoms: _416  and  _417
REMARK  173  A    between atoms: _419  and  _421
REMARK  174  A    between atoms: _421  and  _422
REMARK  175  A    between atoms: _421  and  _424
REMARK  176  A    between atoms: _424  and  _425
REMARK  177  A    between atoms: _428  and  _430
REMARK  178  A    between atoms: _430  and  _431
REMARK  179  A    between atoms: _434  and  _436
REMARK  180  A    between atoms: _436  and  _437
REMARK  181  A    between atoms: _436  and  _439
REMARK  182  A    between atoms: _439  and  _440
REMARK  183  A    between atoms: _443  and  _445
REMARK  184  A    between atoms: _445  and  _446
REMARK  185  A    between atoms: _445  and  _448
REMARK  186  A    between atoms: _448  and  _449
REMARK  187  A    between atoms: _453  and  _454
REMARK  188  A    between atoms: _459  and  _461
REMARK  189  A    between atoms: _461  and  _462
REMARK  190  A    between atoms: _461  and  _464
REMARK  191  A    between atoms: _464  and  _465
REMARK  192  A    between atoms: _465  and  _466
REMARK  193  A    between atoms: _469  and  _471
REMARK  194  A    between atoms: _471  and  _472
REMARK  195  A    between atoms: _471  and  _474
REMARK  196  A    between atoms: _474  and  _475
REMARK  197  A    between atoms: _478  and  _480
REMARK  198  A    between atoms: _480  and  _481
REMARK  199  A    between atoms: _480  and  _483
REMARK  200  A    between atoms: _483  and  _484
REMARK  201  A    between atoms: _489  and  _491
REMARK  202  A    between atoms: _491  and  _492
REMARK  203  A    between atoms: _491  and  _494
REMARK  204  A    between atoms: _494  and  _495
REMARK  205  A    between atoms: _495  and  _496
REMARK  206  A    between atoms: _496  and  _497
REMARK  207  A    between atoms: _497  and  _498
REMARK  208  A    between atoms: _502  and  _504
REMARK  209  A    between atoms: _504  and  _505
REMARK  210  A    between atoms: _504  and  _507
REMARK  211  A    between atoms: _507  and  _508
REMARK                            x       y       z     vdW  Elec       q    Type
REMARK                         _______ _______ _______ _____ _____    ______ ____
ROOT
ATOM      1  O   HOH     1      27.105 -22.089  17.565  0.00  0.00    +0.000 OA
ENDROOT
TORSDOF 0
REMARK  Name = ../refined-set-2016/1x1z/1x1z_pocket.pdb
REMARK  211 active torsions:
REMARK  status: ('A' for Active; 'I' for Inactive)
REMARK    1  A    between atoms: _1  and  _3
REMARK    2  A    between atoms: _3  and  _4
REMARK    3  A    between atoms: _3  and  _6
REMARK    4  A    between atoms: _6  and  _7
REMARK    5  A    between atoms: _10  and  _12
REMARK    6  A    between atoms: _12  and  _13
REMARK    7  A    between atoms: _12  and  _15
REMARK    8  A    between atoms: _15  and  _16
REMARK    9  A    between atoms: _19  and  _21
REMARK   10  A    between atoms: _21  and  _22
REMARK   11  A    between atoms: _25  and  _27
REMARK   12  A    between atoms: _27  and  _28
REMARK   13  A    between atoms: _27  and  _30
REMARK   14  A    between atoms: _30  and  _31
REMARK   15  A    between atoms: _31  and  _32
REMARK   16  A    between atoms: _34  and  _36
REMARK   17  A    between atoms: _36  and  _37
REMARK   18  A    between atoms: _36  and  _39
REMARK   19  A    between atoms: _39  and  _40
REMARK   20  A    between atoms: _43  and  _45
REMARK   21  A    between atoms: _45  and  _46
REMARK   22  A    between atoms: _45  and  _48
REMARK   23  A    between atoms: _48  and  _49
REMARK   24  A    between atoms: _49  and  _50
REMARK   25  A    between atoms: _50  and  _51
REMARK   26  A    between atoms: _51  and  _52
REMARK   27  A    between atoms: _56  and  _58
REMARK   28  A    between atoms: _58  and  _59
REMARK   29  A    between atoms: _58  and  _61
REMARK   30  A    between atoms: _61  and  _62
REMARK   31  A    between atoms: _65  and  _67
REMARK   32  A    between atoms: _67  and  _68
REMARK   33  A    between atoms: _70  and  _72
REMARK   34  A    between atoms: _72  and  _73
REMARK   35  A    between atoms: _72  and  _75
REMARK   36  A    between atoms: _75  and  _76
REMARK   37  A    between atoms: _81  and  _82
REMARK   38  A    between atoms: _85  and  _86
REMARK   39  A    between atoms: _91  and  _93
REMARK   40  A    between atoms: _93  and  _94
REMARK   41  A    between atoms: _93  and  _96
REMARK   42  A    between atoms: _96  and  _97
REMARK   43  A    between atoms: _100  and  _102
REMARK   44  A    between atoms: _102  and  _103
REMARK   45  A    between atoms: _102  and  _105
REMARK   46  A    between atoms: _105  and  _106
REMARK   47  A    between atoms: _109  and  _111
REMARK   48  A    between atoms: _111  and  _112
REMARK   49  A    between atoms: _111  and  _114
REMARK   50  A    between atoms: _114  and  _115
REMARK   51  A    between atoms: _121  and  _123
REMARK   52  A    between atoms: _123  and  _124
REMARK   53  A    between atoms: _123  and  _126
REMARK   54  A    between atoms: _126  and  _127
REMARK   55  A    between atoms: _127  and  _128
REMARK   56  A    between atoms: _128  and  _129
REMARK   57  A    between atoms: _129  and  _130
REMARK   58  A    between atoms: _134  and  _136
REMARK   59  A    between atoms: _136  and  _137
REMARK   60  A    between atoms: _136  and  _139
REMARK   61  A    between atoms: _139  and  _140
REMARK   62  A    between atoms: _143  and  _145
REMARK   63  A    between atoms: _145  and  _146
REMARK   64  A    between atoms: _145  and  _148
REMARK   65  A    between atoms: _148  and  _149
REMARK   66  A    between atoms: _154  and  _156
REMARK   67  A    between atoms: _156  and  _157
REMARK   68  A    between atoms: _156  and  _159
REMARK   69  A    between atoms: _159  and  _160
REMARK   70  A    between atoms: _163  and  _165
REMARK   71  A    between atoms: _165  and  _166
REMARK   72  A    between atoms: _165  and  _168
REMARK   73  A    between atoms: _168  and  _169
REMARK   74  A    between atoms: _172  and  _174
REMARK   75  A    between atoms: _174  and  _175
REMARK   76  A    between atoms: _174  and  _177
REMARK   77  A    between atoms: _177  and  _178
REMARK   78  A    between atoms: _178  and  _179
REMARK   79  A    between atoms: _182  and  _184
REMARK   80  A    between atoms: _184  and  _185
REMARK   81  A    between atoms: _184  and  _187
REMARK   82  A    between atoms: _187  and  _188
REMARK   83  A    between atoms: _188  and  _189
REMARK   84  A    between atoms: _191  and  _193
REMARK   85  A    between atoms: _193  and  _194
REMARK   86  A    between atoms: _193  and  _196
REMARK   87  A    between atoms: _196  and  _197
REMARK   88  A    between atoms: _199  and  _201
REMARK   89  A    between atoms: _201  and  _202
REMARK   90  A    between atoms: _201  and  _204
REMARK   91  A    between atoms: _204  and  _205
REMARK   92  A    between atoms: _210  and  _212
REMARK   93  A    between atoms: _212  and  _213
REMARK   94  A    between atoms: _216  and  _218
REMARK   95  A    between atoms: _218  and  _219
REMARK   96  A    between atoms: _218  and  _221
REMARK   97  A    between atoms: _221  and  _222
REMARK   98  A    between atoms: _225  and  _227
REMARK   99  A    between atoms: _227  and  _228
REMARK  100  A    between atoms: _227  and  _230
REMARK  101  A    between atoms: _233  and  _235
REMARK  102  A    between atoms: _235  and  _236
REMARK  103  A    between atoms: _239  and  _240
REMARK  104  A    between atoms: _245  and  _247
REMARK  105  A    between atoms: _247  and  _248
REMARK  106  A    between atoms: _247  and  _250
REMARK  107  A    between atoms: _250  and  _251
REMARK  108  A    between atoms: _253  and  _255
REMARK  109  A    between atoms: _255  and  _256
REMARK  110  A    between atoms: _255  and  _258
REMARK  111  A    between atoms: _258  and  _259
REMARK  112  A    between atoms: _262  and  _264
REMARK  113  A    between atoms: _264  and  _265
REMARK  114  A    between atoms: _264  and  _267
REMARK  115  A    between atoms: _267  and  _268
REMARK  116  A    between atoms: _268  and  _269
REMARK  117  A    between atoms: _269  and  _270
REMARK  118  A    between atoms: _279  and  _281
REMARK  119  A    between atoms: _281  and  _282
REMARK  120  A    between atoms: _281  and  _284
REMARK  121  A    between atoms: _284  and  _285
REMARK  122  A    between atoms: _288  and  _290
REMARK  123  A    between atoms: _290  and  _291
REMARK  124  A    between atoms: _290  and  _293
REMARK  125  A    between atoms: _293  and  _294
REMARK  126  A    between atoms: _297  and  _298
REMARK  127  A    between atoms: _303  and  _305
REMARK  128  A    between atoms: _305  and  _306
REMARK  129  A    between atoms: _308  and  _310
REMARK  130  A    between atoms: _310  and  _311
REMARK  131  A    between atoms: _310  and  _313
REMARK  132  A    between atoms: _316  and  _318
REMARK  133  A    between atoms: _318  and  _319
REMARK  134  A    between atoms: _321  and  _323
REMARK  135  A    between atoms: _323  and  _324
REMARK  136  A    between atoms: _327  and  _329
REMARK  137  A    between atoms: _329  and  _330
REMARK  138  A    between atoms: _329  and  _332
REMARK  139  A    between atoms: _332  and  _333
REMARK  140  A    between atoms: _333  and  _334
REMARK  141  A    between atoms: _339  and  _341
REMARK  142  A    between atoms: _341  and  _342
REMARK  143  A    between atoms: _344  and  _346
REMARK  144  A    between atoms: _346  and  _347
REMARK  145  A    between atoms: _349  and  _351
REMARK  146  A    between atoms: _351  and  _352
REMARK  147  A    between atoms: _351  and  _354
REMARK  148  A    between atoms: _354  and  _355
REMARK  149  A    between atoms: _358  and  _360
REMARK  150  A    between atoms: _360  and  _361
REMARK  151  A    between atoms: _360  and  _363
REMARK  152  A    between atoms: _366  and  _368
REMARK  153  A    between atoms: _368  and  _369
REMARK  154  A    between atoms: _371  and  _373
REMARK  155  A    between atoms: _373  and  _374
REMARK  156  A    between atoms: _373  and  _376
REMARK  157  A    between atoms: _376  and  _377
REMARK  158  A    between atoms: _377  and  _378
REMARK  159  A    between atoms: _378  and  _379
REMARK  160  A    between atoms: _388  and  _390
REMARK  161  A    between atoms: _390  and  _391
REMARK  162  A    between atoms: _390  and  _393
REMARK  163  A    between atoms: _393  and  _394
REMARK  164  A    between atoms: _396  and  _398
REMARK  165  A    between atoms: _398  and  _399
REMARK  166  A    between atoms: _398  and  _401
REMARK  167  A    between atoms: _401  and  _402
REMARK  168  A    between atoms: _405  and  _407
REMARK  169  A    between atoms: _407  and  _408
REMARK  170  A    between atoms: _407  and  _410
REMARK  171  A    between atoms: _410  and  _411
REMARK  172  A    between atoms: _416  and  _417
REMARK  173  A    between atoms: _419  and  _421
REMARK  174  A    between atoms: _421  and  _422
REMARK  175  A    between atoms: _421  and  _424
REMARK  176  A    between atoms: _424  and  _425
REMARK  177  A    between atoms: _428  and  _430
REMARK  178  A    between atoms: _430  and  _431
REMARK  179  A    between atoms: _434  and  _436
REMARK  180  A    between atoms: _436  and  _437
REMARK  181  A    between atoms: _436  and  _439
REMARK  182  A    between atoms: _439  and  _440
REMARK  183  A    between atoms: _443  and  _445
REMARK  184  A    between atoms: _445  and  _446
REMARK  185  A    between atoms: _445  and  _448
REMARK  186  A    between atoms: _448  and  _449
REMARK  187  A    between atoms: _453  and  _454
REMARK  188  A    between atoms: _459  and  _461
REMARK  189  A    between atoms: _461  and  _462
REMARK  190  A    between atoms: _461  and  _464
REMARK  191  A    between atoms: _464  and  _465
REMARK  192  A    between atoms: _465  and  _466
REMARK  193  A    between atoms: _469  and  _471
REMARK  194  A    between atoms: _471  and  _472
REMARK  195  A    between atoms: _471  and  _474
REMARK  196  A    between atoms: _474  and  _475
REMARK  197  A    between atoms: _478  and  _480
REMARK  198  A    between atoms: _480  and  _481
REMARK  199  A    between atoms: _480  and  _483
REMARK  200  A    between atoms: _483  and  _484
REMARK  201  A    between atoms: _489  and  _491
REMARK  202  A    between atoms: _491  and  _492
REMARK  203  A    between atoms: _491  and  _494
REMARK  204  A    between atoms: _494  and  _495
REMARK  205  A    between atoms: _495  and  _496
REMARK  206  A    between atoms: _496  and  _497
REMARK  207  A    between atoms: _497  and  _498
REMARK  208  A    between atoms: _502  and  _504
REMARK  209  A    between atoms: _504  and  _505
REMARK  210  A    between atoms: _504  and  _507
REMARK  211  A    between atoms: _507  and  _508
REMARK                            x       y       z     vdW  Elec       q    Type
REMARK                         _______ _______ _______ _____ _____    ______ ____
ROOT
ATOM      1  O   HOH     1      31.734 -12.373  10.699  0.00  0.00    +0.000 OA
ENDROOT
TORSDOF 0
REMARK  Name = ../refined-set-2016/1x1z/1x1z_pocket.pdb
REMARK  211 active torsions:
REMARK  status: ('A' for Active; 'I' for Inactive)
REMARK    1  A    between atoms: _1  and  _3
REMARK    2  A    between atoms: _3  and  _4
REMARK    3  A    between atoms: _3  and  _6
REMARK    4  A    between atoms: _6  and  _7
REMARK    5  A    between atoms: _10  and  _12
REMARK    6  A    between atoms: _12  and  _13
REMARK    7  A    between atoms: _12  and  _15
REMARK    8  A    between atoms: _15  and  _16
REMARK    9  A    between atoms: _19  and  _21
REMARK   10  A    between atoms: _21  and  _22
REMARK   11  A    between atoms: _25  and  _27
REMARK   12  A    between atoms: _27  and  _28
REMARK   13  A    between atoms: _27  and  _30
REMARK   14  A    between atoms: _30  and  _31
REMARK   15  A    between atoms: _31  and  _32
REMARK   16  A    between atoms: _34  and  _36
REMARK   17  A    between atoms: _36  and  _37
REMARK   18  A    between atoms: _36  and  _39
REMARK   19  A    between atoms: _39  and  _40
REMARK   20  A    between atoms: _43  and  _45
REMARK   21  A    between atoms: _45  and  _46
REMARK   22  A    between atoms: _45  and  _48
REMARK   23  A    between atoms: _48  and  _49
REMARK   24  A    between atoms: _49  and  _50
REMARK   25  A    between atoms: _50  and  _51
REMARK   26  A    between atoms: _51  and  _52
REMARK   27  A    between atoms: _56  and  _58
REMARK   28  A    between atoms: _58  and  _59
REMARK   29  A    between atoms: _58  and  _61
REMARK   30  A    between atoms: _61  and  _62
REMARK   31  A    between atoms: _65  and  _67
REMARK   32  A    between atoms: _67  and  _68
REMARK   33  A    between atoms: _70  and  _72
REMARK   34  A    between atoms: _72  and  _73
REMARK   35  A    between atoms: _72  and  _75
REMARK   36  A    between atoms: _75  and  _76
REMARK   37  A    between atoms: _81  and  _82
REMARK   38  A    between atoms: _85  and  _86
REMARK   39  A    between atoms: _91  and  _93
REMARK   40  A    between atoms: _93  and  _94
REMARK   41  A    between atoms: _93  and  _96
REMARK   42  A    between atoms: _96  and  _97
REMARK   43  A    between atoms: _100  and  _102
REMARK   44  A    between atoms: _102  and  _103
REMARK   45  A    between atoms: _102  and  _105
REMARK   46  A    between atoms: _105  and  _106
REMARK   47  A    between atoms: _109  and  _111
REMARK   48  A    between atoms: _111  and  _112
REMARK   49  A    between atoms: _111  and  _114
REMARK   50  A    between atoms: _114  and  _115
REMARK   51  A    between atoms: _121  and  _123
REMARK   52  A    between atoms: _123  and  _124
REMARK   53  A    between atoms: _123  and  _126
REMARK   54  A    between atoms: _126  and  _127
REMARK   55  A    between atoms: _127  and  _128
REMARK   56  A    between atoms: _128  and  _129
REMARK   57  A    between atoms: _129  and  _130
REMARK   58  A    between atoms: _134  and  _136
REMARK   59  A    between atoms: _136  and  _137
REMARK   60  A    between atoms: _136  and  _139
REMARK   61  A    between atoms: _139  and  _140
REMARK   62  A    between atoms: _143  and  _145
REMARK   63  A    between atoms: _145  and  _146
REMARK   64  A    between atoms: _145  and  _148
REMARK   65  A    between atoms: _148  and  _149
REMARK   66  A    between atoms: _154  and  _156
REMARK   67  A    between atoms: _156  and  _157
REMARK   68  A    between atoms: _156  and  _159
REMARK   69  A    between atoms: _159  and  _160
REMARK   70  A    between atoms: _163  and  _165
REMARK   71  A    between atoms: _165  and  _166
REMARK   72  A    between atoms: _165  and  _168
REMARK   73  A    between atoms: _168  and  _169
REMARK   74  A    between atoms: _172  and  _174
REMARK   75  A    between atoms: _174  and  _175
REMARK   76  A    between atoms: _174  and  _177
REMARK   77  A    between atoms: _177  and  _178
REMARK   78  A    between atoms: _178  and  _179
REMARK   79  A    between atoms: _182  and  _184
REMARK   80  A    between atoms: _184  and  _185
REMARK   81  A    between atoms: _184  and  _187
REMARK   82  A    between atoms: _187  and  _188
REMARK   83  A    between atoms: _188  and  _189
REMARK   84  A    between atoms: _191  and  _193
REMARK   85  A    between atoms: _193  and  _194
REMARK   86  A    between atoms: _193  and  _196
REMARK   87  A    between atoms: _196  and  _197
REMARK   88  A    between atoms: _199  and  _201
REMARK   89  A    between atoms: _201  and  _202
REMARK   90  A    between atoms: _201  and  _204
REMARK   91  A    between atoms: _204  and  _205
REMARK   92  A    between atoms: _210  and  _212
REMARK   93  A    between atoms: _212  and  _213
REMARK   94  A    between atoms: _216  and  _218
REMARK   95  A    between atoms: _218  and  _219
REMARK   96  A    between atoms: _218  and  _221
REMARK   97  A    between atoms: _221  and  _222
REMARK   98  A    between atoms: _225  and  _227
REMARK   99  A    between atoms: _227  and  _228
REMARK  100  A    between atoms: _227  and  _230
REMARK  101  A    between atoms: _233  and  _235
REMARK  102  A    between atoms: _235  and  _236
REMARK  103  A    between atoms: _239  and  _240
REMARK  104  A    between atoms: _245  and  _247
REMARK  105  A    between atoms: _247  and  _248
REMARK  106  A    between atoms: _247  and  _250
REMARK  107  A    between atoms: _250  and  _251
REMARK  108  A    between atoms: _253  and  _255
REMARK  109  A    between atoms: _255  and  _256
REMARK  110  A    between atoms: _255  and  _258
REMARK  111  A    between atoms: _258  and  _259
REMARK  112  A    between atoms: _262  and  _264
REMARK  113  A    between atoms: _264  and  _265
REMARK  114  A    between atoms: _264  and  _267
REMARK  115  A    between atoms: _267  and  _268
REMARK  116  A    between atoms: _268  and  _269
REMARK  117  A    between atoms: _269  and  _270
REMARK  118  A    between atoms: _279  and  _281
REMARK  119  A    between atoms: _281  and  _282
REMARK  120  A    between atoms: _281  and  _284
REMARK  121  A    between atoms: _284  and  _285
REMARK  122  A    between atoms: _288  and  _290
REMARK  123  A    between atoms: _290  and  _291
REMARK  124  A    between atoms: _290  and  _293
REMARK  125  A    between atoms: _293  and  _294
REMARK  126  A    between atoms: _297  and  _298
REMARK  127  A    between atoms: _303  and  _305
REMARK  128  A    between atoms: _305  and  _306
REMARK  129  A    between atoms: _308  and  _310
REMARK  130  A    between atoms: _310  and  _311
REMARK  131  A    between atoms: _310  and  _313
REMARK  132  A    between atoms: _316  and  _318
REMARK  133  A    between atoms: _318  and  _319
REMARK  134  A    between atoms: _321  and  _323
REMARK  135  A    between atoms: _323  and  _324
REMARK  136  A    between atoms: _327  and  _329
REMARK  137  A    between atoms: _329  and  _330
REMARK  138  A    between atoms: _329  and  _332
REMARK  139  A    between atoms: _332  and  _333
REMARK  140  A    between atoms: _333  and  _334
REMARK  141  A    between atoms: _339  and  _341
REMARK  142  A    between atoms: _341  and  _342
REMARK  143  A    between atoms: _344  and  _346
REMARK  144  A    between atoms: _346  and  _347
REMARK  145  A    between atoms: _349  and  _351
REMARK  146  A    between atoms: _351  and  _352
REMARK  147  A    between atoms: _351  and  _354
REMARK  148  A    between atoms: _354  and  _355
REMARK  149  A    between atoms: _358  and  _360
REMARK  150  A    between atoms: _360  and  _361
REMARK  151  A    between atoms: _360  and  _363
REMARK  152  A    between atoms: _366  and  _368
REMARK  153  A    between atoms: _368  and  _369
REMARK  154  A    between atoms: _371  and  _373
REMARK  155  A    between atoms: _373  and  _374
REMARK  156  A    between atoms: _373  and  _376
REMARK  157  A    between atoms: _376  and  _377
REMARK  158  A    between atoms: _377  and  _378
REMARK  159  A    between atoms: _378  and  _379
REMARK  160  A    between atoms: _388  and  _390
REMARK  161  A    between atoms: _390  and  _391
REMARK  162  A    between atoms: _390  and  _393
REMARK  163  A    between atoms: _393  and  _394
REMARK  164  A    between atoms: _396  and  _398
REMARK  165  A    between atoms: _398  and  _399
REMARK  166  A    between atoms: _398  and  _401
REMARK  167  A    between atoms: _401  and  _402
REMARK  168  A    between atoms: _405  and  _407
REMARK  169  A    between atoms: _407  and  _408
REMARK  170  A    between atoms: _407  and  _410
REMARK  171  A    between atoms: _410  and  _411
REMARK  172  A    between atoms: _416  and  _417
REMARK  173  A    between atoms: _419  and  _421
REMARK  174  A    between atoms: _421  and  _422
REMARK  175  A    between atoms: _421  and  _424
REMARK  176  A    between atoms: _424  and  _425
REMARK  177  A    between atoms: _428  and  _430
REMARK  178  A    between atoms: _430  and  _431
REMARK  179  A    between atoms: _434  and  _436
REMARK  180  A    between atoms: _436  and  _437
REMARK  181  A    between atoms: _436  and  _439
REMARK  182  A    between atoms: _439  and  _440
REMARK  183  A    between atoms: _443  and  _445
REMARK  184  A    between atoms: _445  and  _446
REMARK  185  A    between atoms: _445  and  _448
REMARK  186  A    between atoms: _448  and  _449
REMARK  187  A    between atoms: _453  and  _454
REMARK  188  A    between atoms: _459  and  _461
REMARK  189  A    between atoms: _461  and  _462
REMARK  190  A    between atoms: _461  and  _464
REMARK  191  A    between atoms: _464  and  _465
REMARK  192  A    between atoms: _465  and  _466
REMARK  193  A    between atoms: _469  and  _471
REMARK  194  A    between atoms: _471  and  _472
REMARK  195  A    between atoms: _471  and  _474
REMARK  196  A    between atoms: _474  and  _475
REMARK  197  A    between atoms: _478  and  _480
REMARK  198  A    between atoms: _480  and  _481
REMARK  199  A    between atoms: _480  and  _483
REMARK  200  A    between atoms: _483  and  _484
REMARK  201  A    between atoms: _489  and  _491
REMARK  202  A    between atoms: _491  and  _492
REMARK  203  A    between atoms: _491  and  _494
REMARK  204  A    between atoms: _494  and  _495
REMARK  205  A    between atoms: _495  and  _496
REMARK  206  A    between atoms: _496  and  _497
REMARK  207  A    between atoms: _497  and  _498
REMARK  208  A    between atoms: _502  and  _504
REMARK  209  A    between atoms: _504  and  _505
REMARK  210  A    between atoms: _504  and  _507
REMARK  211  A    between atoms: _507  and  _508
REMARK                            x       y       z     vdW  Elec       q    Type
REMARK                         _______ _______ _______ _____ _____    ______ ____
ROOT
ATOM      1  O   HOH     1      23.275  -8.141   8.175  0.00  0.00    +0.000 OA
ENDROOT
TORSDOF 0
REMARK  Name = ../refined-set-2016/1x1z/1x1z_pocket.pdb
REMARK  211 active torsions:
REMARK  status: ('A' for Active; 'I' for Inactive)
REMARK    1  A    between atoms: _1  and  _3
REMARK    2  A    between atoms: _3  and  _4
REMARK    3  A    between atoms: _3  and  _6
REMARK    4  A    between atoms: _6  and  _7
REMARK    5  A    between atoms: _10  and  _12
REMARK    6  A    between atoms: _12  and  _13
REMARK    7  A    between atoms: _12  and  _15
REMARK    8  A    between atoms: _15  and  _16
REMARK    9  A    between atoms: _19  and  _21
REMARK   10  A    between atoms: _21  and  _22
REMARK   11  A    between atoms: _25  and  _27
REMARK   12  A    between atoms: _27  and  _28
REMARK   13  A    between atoms: _27  and  _30
REMARK   14  A    between atoms: _30  and  _31
REMARK   15  A    between atoms: _31  and  _32
REMARK   16  A    between atoms: _34  and  _36
REMARK   17  A    between atoms: _36  and  _37
REMARK   18  A    between atoms: _36  and  _39
REMARK   19  A    between atoms: _39  and  _40
REMARK   20  A    between atoms: _43  and  _45
REMARK   21  A    between atoms: _45  and  _46
REMARK   22  A    between atoms: _45  and  _48
REMARK   23  A    between atoms: _48  and  _49
REMARK   24  A    between atoms: _49  and  _50
REMARK   25  A    between atoms: _50  and  _51
REMARK   26  A    between atoms: _51  and  _52
REMARK   27  A    between atoms: _56  and  _58
REMARK   28  A    between atoms: _58  and  _59
REMARK   29  A    between atoms: _58  and  _61
REMARK   30  A    between atoms: _61  and  _62
REMARK   31  A    between atoms: _65  and  _67
REMARK   32  A    between atoms: _67  and  _68
REMARK   33  A    between atoms: _70  and  _72
REMARK   34  A    between atoms: _72  and  _73
REMARK   35  A    between atoms: _72  and  _75
REMARK   36  A    between atoms: _75  and  _76
REMARK   37  A    between atoms: _81  and  _82
REMARK   38  A    between atoms: _85  and  _86
REMARK   39  A    between atoms: _91  and  _93
REMARK   40  A    between atoms: _93  and  _94
REMARK   41  A    between atoms: _93  and  _96
REMARK   42  A    between atoms: _96  and  _97
REMARK   43  A    between atoms: _100  and  _102
REMARK   44  A    between atoms: _102  and  _103
REMARK   45  A    between atoms: _102  and  _105
REMARK   46  A    between atoms: _105  and  _106
REMARK   47  A    between atoms: _109  and  _111
REMARK   48  A    between atoms: _111  and  _112
REMARK   49  A    between atoms: _111  and  _114
REMARK   50  A    between atoms: _114  and  _115
REMARK   51  A    between atoms: _121  and  _123
REMARK   52  A    between atoms: _123  and  _124
REMARK   53  A    between atoms: _123  and  _126
REMARK   54  A    between atoms: _126  and  _127
REMARK   55  A    between atoms: _127  and  _128
REMARK   56  A    between atoms: _128  and  _129
REMARK   57  A    between atoms: _129  and  _130
REMARK   58  A    between atoms: _134  and  _136
REMARK   59  A    between atoms: _136  and  _137
REMARK   60  A    between atoms: _136  and  _139
REMARK   61  A    between atoms: _139  and  _140
REMARK   62  A    between atoms: _143  and  _145
REMARK   63  A    between atoms: _145  and  _146
REMARK   64  A    between atoms: _145  and  _148
REMARK   65  A    between atoms: _148  and  _149
REMARK   66  A    between atoms: _154  and  _156
REMARK   67  A    between atoms: _156  and  _157
REMARK   68  A    between atoms: _156  and  _159
REMARK   69  A    between atoms: _159  and  _160
REMARK   70  A    between atoms: _163  and  _165
REMARK   71  A    between atoms: _165  and  _166
REMARK   72  A    between atoms: _165  and  _168
REMARK   73  A    between atoms: _168  and  _169
REMARK   74  A    between atoms: _172  and  _174
REMARK   75  A    between atoms: _174  and  _175
REMARK   76  A    between atoms: _174  and  _177
REMARK   77  A    between atoms: _177  and  _178
REMARK   78  A    between atoms: _178  and  _179
REMARK   79  A    between atoms: _182  and  _184
REMARK   80  A    between atoms: _184  and  _185
REMARK   81  A    between atoms: _184  and  _187
REMARK   82  A    between atoms: _187  and  _188
REMARK   83  A    between atoms: _188  and  _189
REMARK   84  A    between atoms: _191  and  _193
REMARK   85  A    between atoms: _193  and  _194
REMARK   86  A    between atoms: _193  and  _196
REMARK   87  A    between atoms: _196  and  _197
REMARK   88  A    between atoms: _199  and  _201
REMARK   89  A    between atoms: _201  and  _202
REMARK   90  A    between atoms: _201  and  _204
REMARK   91  A    between atoms: _204  and  _205
REMARK   92  A    between atoms: _210  and  _212
REMARK   93  A    between atoms: _212  and  _213
REMARK   94  A    between atoms: _216  and  _218
REMARK   95  A    between atoms: _218  and  _219
REMARK   96  A    between atoms: _218  and  _221
REMARK   97  A    between atoms: _221  and  _222
REMARK   98  A    between atoms: _225  and  _227
REMARK   99  A    between atoms: _227  and  _228
REMARK  100  A    between atoms: _227  and  _230
REMARK  101  A    between atoms: _233  and  _235
REMARK  102  A    between atoms: _235  and  _236
REMARK  103  A    between atoms: _239  and  _240
REMARK  104  A    between atoms: _245  and  _247
REMARK  105  A    between atoms: _247  and  _248
REMARK  106  A    between atoms: _247  and  _250
REMARK  107  A    between atoms: _250  and  _251
REMARK  108  A    between atoms: _253  and  _255
REMARK  109  A    between atoms: _255  and  _256
REMARK  110  A    between atoms: _255  and  _258
REMARK  111  A    between atoms: _258  and  _259
REMARK  112  A    between atoms: _262  and  _264
REMARK  113  A    between atoms: _264  and  _265
REMARK  114  A    between atoms: _264  and  _267
REMARK  115  A    between atoms: _267  and  _268
REMARK  116  A    between atoms: _268  and  _269
REMARK  117  A    between atoms: _269  and  _270
REMARK  118  A    between atoms: _279  and  _281
REMARK  119  A    between atoms: _281  and  _282
REMARK  120  A    between atoms: _281  and  _284
REMARK  121  A    between atoms: _284  and  _285
REMARK  122  A    between atoms: _288  and  _290
REMARK  123  A    between atoms: _290  and  _291
REMARK  124  A    between atoms: _290  and  _293
REMARK  125  A    between atoms: _293  and  _294
REMARK  126  A    between atoms: _297  and  _298
REMARK  127  A    between atoms: _303  and  _305
REMARK  128  A    between atoms: _305  and  _306
REMARK  129  A    between atoms: _308  and  _310
REMARK  130  A    between atoms: _310  and  _311
REMARK  131  A    between atoms: _310  and  _313
REMARK  132  A    between atoms: _316  and  _318
REMARK  133  A    between atoms: _318  and  _319
REMARK  134  A    between atoms: _321  and  _323
REMARK  135  A    between atoms: _323  and  _324
REMARK  136  A    between atoms: _327  and  _329
REMARK  137  A    between atoms: _329  and  _330
REMARK  138  A    between atoms: _329  and  _332
REMARK  139  A    between atoms: _332  and  _333
REMARK  140  A    between atoms: _333  and  _334
REMARK  141  A    between atoms: _339  and  _341
REMARK  142  A    between atoms: _341  and  _342
REMARK  143  A    between atoms: _344  and  _346
REMARK  144  A    between atoms: _346  and  _347
REMARK  145  A    between atoms: _349  and  _351
REMARK  146  A    between atoms: _351  and  _352
REMARK  147  A    between atoms: _351  and  _354
REMARK  148  A    between atoms: _354  and  _355
REMARK  149  A    between atoms: _358  and  _360
REMARK  150  A    between atoms: _360  and  _361
REMARK  151  A    between atoms: _360  and  _363
REMARK  152  A    between atoms: _366  and  _368
REMARK  153  A    between atoms: _368  and  _369
REMARK  154  A    between atoms: _371  and  _373
REMARK  155  A    between atoms: _373  and  _374
REMARK  156  A    between atoms: _373  and  _376
REMARK  157  A    between atoms: _376  and  _377
REMARK  158  A    between atoms: _377  and  _378
REMARK  159  A    between atoms: _378  and  _379
REMARK  160  A    between atoms: _388  and  _390
REMARK  161  A    between atoms: _390  and  _391
REMARK  162  A    between atoms: _390  and  _393
REMARK  163  A    between atoms: _393  and  _394
REMARK  164  A    between atoms: _396  and  _398
REMARK  165  A    between atoms: _398  and  _399
REMARK  166  A    between atoms: _398  and  _401
REMARK  167  A    between atoms: _401  and  _402
REMARK  168  A    between atoms: _405  and  _407
REMARK  169  A    between atoms: _407  and  _408
REMARK  170  A    between atoms: _407  and  _410
REMARK  171  A    between atoms: _410  and  _411
REMARK  172  A    between atoms: _416  and  _417
REMARK  173  A    between atoms: _419  and  _421
REMARK  174  A    between atoms: _421  and  _422
REMARK  175  A    between atoms: _421  and  _424
REMARK  176  A    between atoms: _424  and  _425
REMARK  177  A    between atoms: _428  and  _430
REMARK  178  A    between atoms: _430  and  _431
REMARK  179  A    between atoms: _434  and  _436
REMARK  180  A    between atoms: _436  and  _437
REMARK  181  A    between atoms: _436  and  _439
REMARK  182  A    between atoms: _439  and  _440
REMARK  183  A    between atoms: _443  and  _445
REMARK  184  A    between atoms: _445  and  _446
REMARK  185  A    between atoms: _445  and  _448
REMARK  186  A    between atoms: _448  and  _449
REMARK  187  A    between atoms: _453  and  _454
REMARK  188  A    between atoms: _459  and  _461
REMARK  189  A    between atoms: _461  and  _462
REMARK  190  A    between atoms: _461  and  _464
REMARK  191  A    between atoms: _464  and  _465
REMARK  192  A    between atoms: _465  and  _466
REMARK  193  A    between atoms: _469  and  _471
REMARK  194  A    between atoms: _471  and  _472
REMARK  195  A    between atoms: _471  and  _474
REMARK  196  A    between atoms: _474  and  _475
REMARK  197  A    between atoms: _478  and  _480
REMARK  198  A    between atoms: _480  and  _481
REMARK  199  A    between atoms: _480  and  _483
REMARK  200  A    between atoms: _483  and  _484
REMARK  201  A    between atoms: _489  and  _491
REMARK  202  A    between atoms: _491  and  _492
REMARK  203  A    between atoms: _491  and  _494
REMARK  204  A    between atoms: _494  and  _495
REMARK  205  A    between atoms: _495  and  _496
REMARK  206  A    between atoms: _496  and  _497
REMARK  207  A    between atoms: _497  and  _498
REMARK  208  A    between atoms: _502  and  _504
REMARK  209  A    between atoms: _504  and  _505
REMARK  210  A    between atoms: _504  and  _507
REMARK  211  A    between atoms: _507  and  _508
REMARK                            x       y       z     vdW  Elec       q    Type
REMARK                         _______ _______ _______ _____ _____    ______ ____
ROOT
ATOM      1  O   HOH     1      27.427  -9.444   4.480  0.00  0.00    +0.000 OA
ENDROOT
TORSDOF 0
REMARK  Name = ../refined-set-2016/1x1z/1x1z_pocket.pdb
REMARK  211 active torsions:
REMARK  status: ('A' for Active; 'I' for Inactive)
REMARK    1  A    between atoms: _1  and  _3
REMARK    2  A    between atoms: _3  and  _4
REMARK    3  A    between atoms: _3  and  _6
REMARK    4  A    between atoms: _6  and  _7
REMARK    5  A    between atoms: _10  and  _12
REMARK    6  A    between atoms: _12  and  _13
REMARK    7  A    between atoms: _12  and  _15
REMARK    8  A    between atoms: _15  and  _16
REMARK    9  A    between atoms: _19  and  _21
REMARK   10  A    between atoms: _21  and  _22
REMARK   11  A    between atoms: _25  and  _27
REMARK   12  A    between atoms: _27  and  _28
REMARK   13  A    between atoms: _27  and  _30
REMARK   14  A    between atoms: _30  and  _31
REMARK   15  A    between atoms: _31  and  _32
REMARK   16  A    between atoms: _34  and  _36
REMARK   17  A    between atoms: _36  and  _37
REMARK   18  A    between atoms: _36  and  _39
REMARK   19  A    between atoms: _39  and  _40
REMARK   20  A    between atoms: _43  and  _45
REMARK   21  A    between atoms: _45  and  _46
REMARK   22  A    between atoms: _45  and  _48
REMARK   23  A    between atoms: _48  and  _49
REMARK   24  A    between atoms: _49  and  _50
REMARK   25  A    between atoms: _50  and  _51
REMARK   26  A    between atoms: _51  and  _52
REMARK   27  A    between atoms: _56  and  _58
REMARK   28  A    between atoms: _58  and  _59
REMARK   29  A    between atoms: _58  and  _61
REMARK   30  A    between atoms: _61  and  _62
REMARK   31  A    between atoms: _65  and  _67
REMARK   32  A    between atoms: _67  and  _68
REMARK   33  A    between atoms: _70  and  _72
REMARK   34  A    between atoms: _72  and  _73
REMARK   35  A    between atoms: _72  and  _75
REMARK   36  A    between atoms: _75  and  _76
REMARK   37  A    between atoms: _81  and  _82
REMARK   38  A    between atoms: _85  and  _86
REMARK   39  A    between atoms: _91  and  _93
REMARK   40  A    between atoms: _93  and  _94
REMARK   41  A    between atoms: _93  and  _96
REMARK   42  A    between atoms: _96  and  _97
REMARK   43  A    between atoms: _100  and  _102
REMARK   44  A    between atoms: _102  and  _103
REMARK   45  A    between atoms: _102  and  _105
REMARK   46  A    between atoms: _105  and  _106
REMARK   47  A    between atoms: _109  and  _111
REMARK   48  A    between atoms: _111  and  _112
REMARK   49  A    between atoms: _111  and  _114
REMARK   50  A    between atoms: _114  and  _115
REMARK   51  A    between atoms: _121  and  _123
REMARK   52  A    between atoms: _123  and  _124
REMARK   53  A    between atoms: _123  and  _126
REMARK   54  A    between atoms: _126  and  _127
REMARK   55  A    between atoms: _127  and  _128
REMARK   56  A    between atoms: _128  and  _129
REMARK   57  A    between atoms: _129  and  _130
REMARK   58  A    between atoms: _134  and  _136
REMARK   59  A    between atoms: _136  and  _137
REMARK   60  A    between atoms: _136  and  _139
REMARK   61  A    between atoms: _139  and  _140
REMARK   62  A    between atoms: _143  and  _145
REMARK   63  A    between atoms: _145  and  _146
REMARK   64  A    between atoms: _145  and  _148
REMARK   65  A    between atoms: _148  and  _149
REMARK   66  A    between atoms: _154  and  _156
REMARK   67  A    between atoms: _156  and  _157
REMARK   68  A    between atoms: _156  and  _159
REMARK   69  A    between atoms: _159  and  _160
REMARK   70  A    between atoms: _163  and  _165
REMARK   71  A    between atoms: _165  and  _166
REMARK   72  A    between atoms: _165  and  _168
REMARK   73  A    between atoms: _168  and  _169
REMARK   74  A    between atoms: _172  and  _174
REMARK   75  A    between atoms: _174  and  _175
REMARK   76  A    between atoms: _174  and  _177
REMARK   77  A    between atoms: _177  and  _178
REMARK   78  A    between atoms: _178  and  _179
REMARK   79  A    between atoms: _182  and  _184
REMARK   80  A    between atoms: _184  and  _185
REMARK   81  A    between atoms: _184  and  _187
REMARK   82  A    between atoms: _187  and  _188
REMARK   83  A    between atoms: _188  and  _189
REMARK   84  A    between atoms: _191  and  _193
REMARK   85  A    between atoms: _193  and  _194
REMARK   86  A    between atoms: _193  and  _196
REMARK   87  A    between atoms: _196  and  _197
REMARK   88  A    between atoms: _199  and  _201
REMARK   89  A    between atoms: _201  and  _202
REMARK   90  A    between atoms: _201  and  _204
REMARK   91  A    between atoms: _204  and  _205
REMARK   92  A    between atoms: _210  and  _212
REMARK   93  A    between atoms: _212  and  _213
REMARK   94  A    between atoms: _216  and  _218
REMARK   95  A    between atoms: _218  and  _219
REMARK   96  A    between atoms: _218  and  _221
REMARK   97  A    between atoms: _221  and  _222
REMARK   98  A    between atoms: _225  and  _227
REMARK   99  A    between atoms: _227  and  _228
REMARK  100  A    between atoms: _227  and  _230
REMARK  101  A    between atoms: _233  and  _235
REMARK  102  A    between atoms: _235  and  _236
REMARK  103  A    between atoms: _239  and  _240
REMARK  104  A    between atoms: _245  and  _247
REMARK  105  A    between atoms: _247  and  _248
REMARK  106  A    between atoms: _247  and  _250
REMARK  107  A    between atoms: _250  and  _251
REMARK  108  A    between atoms: _253  and  _255
REMARK  109  A    between atoms: _255  and  _256
REMARK  110  A    between atoms: _255  and  _258
REMARK  111  A    between atoms: _258  and  _259
REMARK  112  A    between atoms: _262  and  _264
REMARK  113  A    between atoms: _264  and  _265
REMARK  114  A    between atoms: _264  and  _267
REMARK  115  A    between atoms: _267  and  _268
REMARK  116  A    between atoms: _268  and  _269
REMARK  117  A    between atoms: _269  and  _270
REMARK  118  A    between atoms: _279  and  _281
REMARK  119  A    between atoms: _281  and  _282
REMARK  120  A    between atoms: _281  and  _284
REMARK  121  A    between atoms: _284  and  _285
REMARK  122  A    between atoms: _288  and  _290
REMARK  123  A    between atoms: _290  and  _291
REMARK  124  A    between atoms: _290  and  _293
REMARK  125  A    between atoms: _293  and  _294
REMARK  126  A    between atoms: _297  and  _298
REMARK  127  A    between atoms: _303  and  _305
REMARK  128  A    between atoms: _305  and  _306
REMARK  129  A    between atoms: _308  and  _310
REMARK  130  A    between atoms: _310  and  _311
REMARK  131  A    between atoms: _310  and  _313
REMARK  132  A    between atoms: _316  and  _318
REMARK  133  A    between atoms: _318  and  _319
REMARK  134  A    between atoms: _321  and  _323
REMARK  135  A    between atoms: _323  and  _324
REMARK  136  A    between atoms: _327  and  _329
REMARK  137  A    between atoms: _329  and  _330
REMARK  138  A    between atoms: _329  and  _332
REMARK  139  A    between atoms: _332  and  _333
REMARK  140  A    between atoms: _333  and  _334
REMARK  141  A    between atoms: _339  and  _341
REMARK  142  A    between atoms: _341  and  _342
REMARK  143  A    between atoms: _344  and  _346
REMARK  144  A    between atoms: _346  and  _347
REMARK  145  A    between atoms: _349  and  _351
REMARK  146  A    between atoms: _351  and  _352
REMARK  147  A    between atoms: _351  and  _354
REMARK  148  A    between atoms: _354  and  _355
REMARK  149  A    between atoms: _358  and  _360
REMARK  150  A    between atoms: _360  and  _361
REMARK  151  A    between atoms: _360  and  _363
REMARK  152  A    between atoms: _366  and  _368
REMARK  153  A    between atoms: _368  and  _369
REMARK  154  A    between atoms: _371  and  _373
REMARK  155  A    between atoms: _373  and  _374
REMARK  156  A    between atoms: _373  and  _376
REMARK  157  A    between atoms: _376  and  _377
REMARK  158  A    between atoms: _377  and  _378
REMARK  159  A    between atoms: _378  and  _379
REMARK  160  A    between atoms: _388  and  _390
REMARK  161  A    between atoms: _390  and  _391
REMARK  162  A    between atoms: _390  and  _393
REMARK  163  A    between atoms: _393  and  _394
REMARK  164  A    between atoms: _396  and  _398
REMARK  165  A    between atoms: _398  and  _399
REMARK  166  A    between atoms: _398  and  _401
REMARK  167  A    between atoms: _401  and  _402
REMARK  168  A    between atoms: _405  and  _407
REMARK  169  A    between atoms: _407  and  _408
REMARK  170  A    between atoms: _407  and  _410
REMARK  171  A    between atoms: _410  and  _411
REMARK  172  A    between atoms: _416  and  _417
REMARK  173  A    between atoms: _419  and  _421
REMARK  174  A    between atoms: _421  and  _422
REMARK  175  A    between atoms: _421  and  _424
REMARK  176  A    between atoms: _424  and  _425
REMARK  177  A    between atoms: _428  and  _430
REMARK  178  A    between atoms: _430  and  _431
REMARK  179  A    between atoms: _434  and  _436
REMARK  180  A    between atoms: _436  and  _437
REMARK  181  A    between atoms: _436  and  _439
REMARK  182  A    between atoms: _439  and  _440
REMARK  183  A    between atoms: _443  and  _445
REMARK  184  A    between atoms: _445  and  _446
REMARK  185  A    between atoms: _445  and  _448
REMARK  186  A    between atoms: _448  and  _449
REMARK  187  A    between atoms: _453  and  _454
REMARK  188  A    between atoms: _459  and  _461
REMARK  189  A    between atoms: _461  and  _462
REMARK  190  A    between atoms: _461  and  _464
REMARK  191  A    between atoms: _464  and  _465
REMARK  192  A    between atoms: _465  and  _466
REMARK  193  A    between atoms: _469  and  _471
REMARK  194  A    between atoms: _471  and  _472
REMARK  195  A    between atoms: _471  and  _474
REMARK  196  A    between atoms: _474  and  _475
REMARK  197  A    between atoms: _478  and  _480
REMARK  198  A    between atoms: _480  and  _481
REMARK  199  A    between atoms: _480  and  _483
REMARK  200  A    between atoms: _483  and  _484
REMARK  201  A    between atoms: _489  and  _491
REMARK  202  A    between atoms: _491  and  _492
REMARK  203  A    between atoms: _491  and  _494
REMARK  204  A    between atoms: _494  and  _495
REMARK  205  A    between atoms: _495  and  _496
REMARK  206  A    between atoms: _496  and  _497
REMARK  207  A    between atoms: _497  and  _498
REMARK  208  A    between atoms: _502  and  _504
REMARK  209  A    between atoms: _504  and  _505
REMARK  210  A    between atoms: _504  and  _507
REMARK  211  A    between atoms: _507  and  _508
REMARK                            x       y       z     vdW  Elec       q    Type
REMARK                         _______ _______ _______ _____ _____    ______ ____
ROOT
ATOM      1  O   HOH     1      23.677 -17.012  21.073  0.00  0.00    +0.000 OA
ENDROOT
TORSDOF 0
REMARK  Name = ../refined-set-2016/1x1z/1x1z_pocket.pdb
REMARK  211 active torsions:
REMARK  status: ('A' for Active; 'I' for Inactive)
REMARK    1  A    between atoms: _1  and  _3
REMARK    2  A    between atoms: _3  and  _4
REMARK    3  A    between atoms: _3  and  _6
REMARK    4  A    between atoms: _6  and  _7
REMARK    5  A    between atoms: _10  and  _12
REMARK    6  A    between atoms: _12  and  _13
REMARK    7  A    between atoms: _12  and  _15
REMARK    8  A    between atoms: _15  and  _16
REMARK    9  A    between atoms: _19  and  _21
REMARK   10  A    between atoms: _21  and  _22
REMARK   11  A    between atoms: _25  and  _27
REMARK   12  A    between atoms: _27  and  _28
REMARK   13  A    between atoms: _27  and  _30
REMARK   14  A    between atoms: _30  and  _31
REMARK   15  A    between atoms: _31  and  _32
REMARK   16  A    between atoms: _34  and  _36
REMARK   17  A    between atoms: _36  and  _37
REMARK   18  A    between atoms: _36  and  _39
REMARK   19  A    between atoms: _39  and  _40
REMARK   20  A    between atoms: _43  and  _45
REMARK   21  A    between atoms: _45  and  _46
REMARK   22  A    between atoms: _45  and  _48
REMARK   23  A    between atoms: _48  and  _49
REMARK   24  A    between atoms: _49  and  _50
REMARK   25  A    between atoms: _50  and  _51
REMARK   26  A    between atoms: _51  and  _52
REMARK   27  A    between atoms: _56  and  _58
REMARK   28  A    between atoms: _58  and  _59
REMARK   29  A    between atoms: _58  and  _61
REMARK   30  A    between atoms: _61  and  _62
REMARK   31  A    between atoms: _65  and  _67
REMARK   32  A    between atoms: _67  and  _68
REMARK   33  A    between atoms: _70  and  _72
REMARK   34  A    between atoms: _72  and  _73
REMARK   35  A    between atoms: _72  and  _75
REMARK   36  A    between atoms: _75  and  _76
REMARK   37  A    between atoms: _81  and  _82
REMARK   38  A    between atoms: _85  and  _86
REMARK   39  A    between atoms: _91  and  _93
REMARK   40  A    between atoms: _93  and  _94
REMARK   41  A    between atoms: _93  and  _96
REMARK   42  A    between atoms: _96  and  _97
REMARK   43  A    between atoms: _100  and  _102
REMARK   44  A    between atoms: _102  and  _103
REMARK   45  A    between atoms: _102  and  _105
REMARK   46  A    between atoms: _105  and  _106
REMARK   47  A    between atoms: _109  and  _111
REMARK   48  A    between atoms: _111  and  _112
REMARK   49  A    between atoms: _111  and  _114
REMARK   50  A    between atoms: _114  and  _115
REMARK   51  A    between atoms: _121  and  _123
REMARK   52  A    between atoms: _123  and  _124
REMARK   53  A    between atoms: _123  and  _126
REMARK   54  A    between atoms: _126  and  _127
REMARK   55  A    between atoms: _127  and  _128
REMARK   56  A    between atoms: _128  and  _129
REMARK   57  A    between atoms: _129  and  _130
REMARK   58  A    between atoms: _134  and  _136
REMARK   59  A    between atoms: _136  and  _137
REMARK   60  A    between atoms: _136  and  _139
REMARK   61  A    between atoms: _139  and  _140
REMARK   62  A    between atoms: _143  and  _145
REMARK   63  A    between atoms: _145  and  _146
REMARK   64  A    between atoms: _145  and  _148
REMARK   65  A    between atoms: _148  and  _149
REMARK   66  A    between atoms: _154  and  _156
REMARK   67  A    between atoms: _156  and  _157
REMARK   68  A    between atoms: _156  and  _159
REMARK   69  A    between atoms: _159  and  _160
REMARK   70  A    between atoms: _163  and  _165
REMARK   71  A    between atoms: _165  and  _166
REMARK   72  A    between atoms: _165  and  _168
REMARK   73  A    between atoms: _168  and  _169
REMARK   74  A    between atoms: _172  and  _174
REMARK   75  A    between atoms: _174  and  _175
REMARK   76  A    between atoms: _174  and  _177
REMARK   77  A    between atoms: _177  and  _178
REMARK   78  A    between atoms: _178  and  _179
REMARK   79  A    between atoms: _182  and  _184
REMARK   80  A    between atoms: _184  and  _185
REMARK   81  A    between atoms: _184  and  _187
REMARK   82  A    between atoms: _187  and  _188
REMARK   83  A    between atoms: _188  and  _189
REMARK   84  A    between atoms: _191  and  _193
REMARK   85  A    between atoms: _193  and  _194
REMARK   86  A    between atoms: _193  and  _196
REMARK   87  A    between atoms: _196  and  _197
REMARK   88  A    between atoms: _199  and  _201
REMARK   89  A    between atoms: _201  and  _202
REMARK   90  A    between atoms: _201  and  _204
REMARK   91  A    between atoms: _204  and  _205
REMARK   92  A    between atoms: _210  and  _212
REMARK   93  A    between atoms: _212  and  _213
REMARK   94  A    between atoms: _216  and  _218
REMARK   95  A    between atoms: _218  and  _219
REMARK   96  A    between atoms: _218  and  _221
REMARK   97  A    between atoms: _221  and  _222
REMARK   98  A    between atoms: _225  and  _227
REMARK   99  A    between atoms: _227  and  _228
REMARK  100  A    between atoms: _227  and  _230
REMARK  101  A    between atoms: _233  and  _235
REMARK  102  A    between atoms: _235  and  _236
REMARK  103  A    between atoms: _239  and  _240
REMARK  104  A    between atoms: _245  and  _247
REMARK  105  A    between atoms: _247  and  _248
REMARK  106  A    between atoms: _247  and  _250
REMARK  107  A    between atoms: _250  and  _251
REMARK  108  A    between atoms: _253  and  _255
REMARK  109  A    between atoms: _255  and  _256
REMARK  110  A    between atoms: _255  and  _258
REMARK  111  A    between atoms: _258  and  _259
REMARK  112  A    between atoms: _262  and  _264
REMARK  113  A    between atoms: _264  and  _265
REMARK  114  A    between atoms: _264  and  _267
REMARK  115  A    between atoms: _267  and  _268
REMARK  116  A    between atoms: _268  and  _269
REMARK  117  A    between atoms: _269  and  _270
REMARK  118  A    between atoms: _279  and  _281
REMARK  119  A    between atoms: _281  and  _282
REMARK  120  A    between atoms: _281  and  _284
REMARK  121  A    between atoms: _284  and  _285
REMARK  122  A    between atoms: _288  and  _290
REMARK  123  A    between atoms: _290  and  _291
REMARK  124  A    between atoms: _290  and  _293
REMARK  125  A    between atoms: _293  and  _294
REMARK  126  A    between atoms: _297  and  _298
REMARK  127  A    between atoms: _303  and  _305
REMARK  128  A    between atoms: _305  and  _306
REMARK  129  A    between atoms: _308  and  _310
REMARK  130  A    between atoms: _310  and  _311
REMARK  131  A    between atoms: _310  and  _313
REMARK  132  A    between atoms: _316  and  _318
REMARK  133  A    between atoms: _318  and  _319
REMARK  134  A    between atoms: _321  and  _323
REMARK  135  A    between atoms: _323  and  _324
REMARK  136  A    between atoms: _327  and  _329
REMARK  137  A    between atoms: _329  and  _330
REMARK  138  A    between atoms: _329  and  _332
REMARK  139  A    between atoms: _332  and  _333
REMARK  140  A    between atoms: _333  and  _334
REMARK  141  A    between atoms: _339  and  _341
REMARK  142  A    between atoms: _341  and  _342
REMARK  143  A    between atoms: _344  and  _346
REMARK  144  A    between atoms: _346  and  _347
REMARK  145  A    between atoms: _349  and  _351
REMARK  146  A    between atoms: _351  and  _352
REMARK  147  A    between atoms: _351  and  _354
REMARK  148  A    between atoms: _354  and  _355
REMARK  149  A    between atoms: _358  and  _360
REMARK  150  A    between atoms: _360  and  _361
REMARK  151  A    between atoms: _360  and  _363
REMARK  152  A    between atoms: _366  and  _368
REMARK  153  A    between atoms: _368  and  _369
REMARK  154  A    between atoms: _371  and  _373
REMARK  155  A    between atoms: _373  and  _374
REMARK  156  A    between atoms: _373  and  _376
REMARK  157  A    between atoms: _376  and  _377
REMARK  158  A    between atoms: _377  and  _378
REMARK  159  A    between atoms: _378  and  _379
REMARK  160  A    between atoms: _388  and  _390
REMARK  161  A    between atoms: _390  and  _391
REMARK  162  A    between atoms: _390  and  _393
REMARK  163  A    between atoms: _393  and  _394
REMARK  164  A    between atoms: _396  and  _398
REMARK  165  A    between atoms: _398  and  _399
REMARK  166  A    between atoms: _398  and  _401
REMARK  167  A    between atoms: _401  and  _402
REMARK  168  A    between atoms: _405  and  _407
REMARK  169  A    between atoms: _407  and  _408
REMARK  170  A    between atoms: _407  and  _410
REMARK  171  A    between atoms: _410  and  _411
REMARK  172  A    between atoms: _416  and  _417
REMARK  173  A    between atoms: _419  and  _421
REMARK  174  A    between atoms: _421  and  _422
REMARK  175  A    between atoms: _421  and  _424
REMARK  176  A    between atoms: _424  and  _425
REMARK  177  A    between atoms: _428  and  _430
REMARK  178  A    between atoms: _430  and  _431
REMARK  179  A    between atoms: _434  and  _436
REMARK  180  A    between atoms: _436  and  _437
REMARK  181  A    between atoms: _436  and  _439
REMARK  182  A    between atoms: _439  and  _440
REMARK  183  A    between atoms: _443  and  _445
REMARK  184  A    between atoms: _445  and  _446
REMARK  185  A    between atoms: _445  and  _448
REMARK  186  A    between atoms: _448  and  _449
REMARK  187  A    between atoms: _453  and  _454
REMARK  188  A    between atoms: _459  and  _461
REMARK  189  A    between atoms: _461  and  _462
REMARK  190  A    between atoms: _461  and  _464
REMARK  191  A    between atoms: _464  and  _465
REMARK  192  A    between atoms: _465  and  _466
REMARK  193  A    between atoms: _469  and  _471
REMARK  194  A    between atoms: _471  and  _472
REMARK  195  A    between atoms: _471  and  _474
REMARK  196  A    between atoms: _474  and  _475
REMARK  197  A    between atoms: _478  and  _480
REMARK  198  A    between atoms: _480  and  _481
REMARK  199  A    between atoms: _480  and  _483
REMARK  200  A    between atoms: _483  and  _484
REMARK  201  A    between atoms: _489  and  _491
REMARK  202  A    between atoms: _491  and  _492
REMARK  203  A    between atoms: _491  and  _494
REMARK  204  A    between atoms: _494  and  _495
REMARK  205  A    between atoms: _495  and  _496
REMARK  206  A    between atoms: _496  and  _497
REMARK  207  A    between atoms: _497  and  _498
REMARK  208  A    between atoms: _502  and  _504
REMARK  209  A    between atoms: _504  and  _505
REMARK  210  A    between atoms: _504  and  _507
REMARK  211  A    between atoms: _507  and  _508
REMARK                            x       y       z     vdW  Elec       q    Type
REMARK                         _______ _______ _______ _____ _____    ______ ____
ROOT
ATOM      1  O   HOH     1      22.061 -13.033  13.003  0.00  0.00    +0.000 OA
ENDROOT
TORSDOF 0
REMARK  Name = ../refined-set-2016/1x1z/1x1z_pocket.pdb
REMARK  211 active torsions:
REMARK  status: ('A' for Active; 'I' for Inactive)
REMARK    1  A    between atoms: _1  and  _3
REMARK    2  A    between atoms: _3  and  _4
REMARK    3  A    between atoms: _3  and  _6
REMARK    4  A    between atoms: _6  and  _7
REMARK    5  A    between atoms: _10  and  _12
REMARK    6  A    between atoms: _12  and  _13
REMARK    7  A    between atoms: _12  and  _15
REMARK    8  A    between atoms: _15  and  _16
REMARK    9  A    between atoms: _19  and  _21
REMARK   10  A    between atoms: _21  and  _22
REMARK   11  A    between atoms: _25  and  _27
REMARK   12  A    between atoms: _27  and  _28
REMARK   13  A    between atoms: _27  and  _30
REMARK   14  A    between atoms: _30  and  _31
REMARK   15  A    between atoms: _31  and  _32
REMARK   16  A    between atoms: _34  and  _36
REMARK   17  A    between atoms: _36  and  _37
REMARK   18  A    between atoms: _36  and  _39
REMARK   19  A    between atoms: _39  and  _40
REMARK   20  A    between atoms: _43  and  _45
REMARK   21  A    between atoms: _45  and  _46
REMARK   22  A    between atoms: _45  and  _48
REMARK   23  A    between atoms: _48  and  _49
REMARK   24  A    between atoms: _49  and  _50
REMARK   25  A    between atoms: _50  and  _51
REMARK   26  A    between atoms: _51  and  _52
REMARK   27  A    between atoms: _56  and  _58
REMARK   28  A    between atoms: _58  and  _59
REMARK   29  A    between atoms: _58  and  _61
REMARK   30  A    between atoms: _61  and  _62
REMARK   31  A    between atoms: _65  and  _67
REMARK   32  A    between atoms: _67  and  _68
REMARK   33  A    between atoms: _70  and  _72
REMARK   34  A    between atoms: _72  and  _73
REMARK   35  A    between atoms: _72  and  _75
REMARK   36  A    between atoms: _75  and  _76
REMARK   37  A    between atoms: _81  and  _82
REMARK   38  A    between atoms: _85  and  _86
REMARK   39  A    between atoms: _91  and  _93
REMARK   40  A    between atoms: _93  and  _94
REMARK   41  A    between atoms: _93  and  _96
REMARK   42  A    between atoms: _96  and  _97
REMARK   43  A    between atoms: _100  and  _102
REMARK   44  A    between atoms: _102  and  _103
REMARK   45  A    between atoms: _102  and  _105
REMARK   46  A    between atoms: _105  and  _106
REMARK   47  A    between atoms: _109  and  _111
REMARK   48  A    between atoms: _111  and  _112
REMARK   49  A    between atoms: _111  and  _114
REMARK   50  A    between atoms: _114  and  _115
REMARK   51  A    between atoms: _121  and  _123
REMARK   52  A    between atoms: _123  and  _124
REMARK   53  A    between atoms: _123  and  _126
REMARK   54  A    between atoms: _126  and  _127
REMARK   55  A    between atoms: _127  and  _128
REMARK   56  A    between atoms: _128  and  _129
REMARK   57  A    between atoms: _129  and  _130
REMARK   58  A    between atoms: _134  and  _136
REMARK   59  A    between atoms: _136  and  _137
REMARK   60  A    between atoms: _136  and  _139
REMARK   61  A    between atoms: _139  and  _140
REMARK   62  A    between atoms: _143  and  _145
REMARK   63  A    between atoms: _145  and  _146
REMARK   64  A    between atoms: _145  and  _148
REMARK   65  A    between atoms: _148  and  _149
REMARK   66  A    between atoms: _154  and  _156
REMARK   67  A    between atoms: _156  and  _157
REMARK   68  A    between atoms: _156  and  _159
REMARK   69  A    between atoms: _159  and  _160
REMARK   70  A    between atoms: _163  and  _165
REMARK   71  A    between atoms: _165  and  _166
REMARK   72  A    between atoms: _165  and  _168
REMARK   73  A    between atoms: _168  and  _169
REMARK   74  A    between atoms: _172  and  _174
REMARK   75  A    between atoms: _174  and  _175
REMARK   76  A    between atoms: _174  and  _177
REMARK   77  A    between atoms: _177  and  _178
REMARK   78  A    between atoms: _178  and  _179
REMARK   79  A    between atoms: _182  and  _184
REMARK   80  A    between atoms: _184  and  _185
REMARK   81  A    between atoms: _184  and  _187
REMARK   82  A    between atoms: _187  and  _188
REMARK   83  A    between atoms: _188  and  _189
REMARK   84  A    between atoms: _191  and  _193
REMARK   85  A    between atoms: _193  and  _194
REMARK   86  A    between atoms: _193  and  _196
REMARK   87  A    between atoms: _196  and  _197
REMARK   88  A    between atoms: _199  and  _201
REMARK   89  A    between atoms: _201  and  _202
REMARK   90  A    between atoms: _201  and  _204
REMARK   91  A    between atoms: _204  and  _205
REMARK   92  A    between atoms: _210  and  _212
REMARK   93  A    between atoms: _212  and  _213
REMARK   94  A    between atoms: _216  and  _218
REMARK   95  A    between atoms: _218  and  _219
REMARK   96  A    between atoms: _218  and  _221
REMARK   97  A    between atoms: _221  and  _222
REMARK   98  A    between atoms: _225  and  _227
REMARK   99  A    between atoms: _227  and  _228
REMARK  100  A    between atoms: _227  and  _230
REMARK  101  A    between atoms: _233  and  _235
REMARK  102  A    between atoms: _235  and  _236
REMARK  103  A    between atoms: _239  and  _240
REMARK  104  A    between atoms: _245  and  _247
REMARK  105  A    between atoms: _247  and  _248
REMARK  106  A    between atoms: _247  and  _250
REMARK  107  A    between atoms: _250  and  _251
REMARK  108  A    between atoms: _253  and  _255
REMARK  109  A    between atoms: _255  and  _256
REMARK  110  A    between atoms: _255  and  _258
REMARK  111  A    between atoms: _258  and  _259
REMARK  112  A    between atoms: _262  and  _264
REMARK  113  A    between atoms: _264  and  _265
REMARK  114  A    between atoms: _264  and  _267
REMARK  115  A    between atoms: _267  and  _268
REMARK  116  A    between atoms: _268  and  _269
REMARK  117  A    between atoms: _269  and  _270
REMARK  118  A    between atoms: _279  and  _281
REMARK  119  A    between atoms: _281  and  _282
REMARK  120  A    between atoms: _281  and  _284
REMARK  121  A    between atoms: _284  and  _285
REMARK  122  A    between atoms: _288  and  _290
REMARK  123  A    between atoms: _290  and  _291
REMARK  124  A    between atoms: _290  and  _293
REMARK  125  A    between atoms: _293  and  _294
REMARK  126  A    between atoms: _297  and  _298
REMARK  127  A    between atoms: _303  and  _305
REMARK  128  A    between atoms: _305  and  _306
REMARK  129  A    between atoms: _308  and  _310
REMARK  130  A    between atoms: _310  and  _311
REMARK  131  A    between atoms: _310  and  _313
REMARK  132  A    between atoms: _316  and  _318
REMARK  133  A    between atoms: _318  and  _319
REMARK  134  A    between atoms: _321  and  _323
REMARK  135  A    between atoms: _323  and  _324
REMARK  136  A    between atoms: _327  and  _329
REMARK  137  A    between atoms: _329  and  _330
REMARK  138  A    between atoms: _329  and  _332
REMARK  139  A    between atoms: _332  and  _333
REMARK  140  A    between atoms: _333  and  _334
REMARK  141  A    between atoms: _339  and  _341
REMARK  142  A    between atoms: _341  and  _342
REMARK  143  A    between atoms: _344  and  _346
REMARK  144  A    between atoms: _346  and  _347
REMARK  145  A    between atoms: _349  and  _351
REMARK  146  A    between atoms: _351  and  _352
REMARK  147  A    between atoms: _351  and  _354
REMARK  148  A    between atoms: _354  and  _355
REMARK  149  A    between atoms: _358  and  _360
REMARK  150  A    between atoms: _360  and  _361
REMARK  151  A    between atoms: _360  and  _363
REMARK  152  A    between atoms: _366  and  _368
REMARK  153  A    between atoms: _368  and  _369
REMARK  154  A    between atoms: _371  and  _373
REMARK  155  A    between atoms: _373  and  _374
REMARK  156  A    between atoms: _373  and  _376
REMARK  157  A    between atoms: _376  and  _377
REMARK  158  A    between atoms: _377  and  _378
REMARK  159  A    between atoms: _378  and  _379
REMARK  160  A    between atoms: _388  and  _390
REMARK  161  A    between atoms: _390  and  _391
REMARK  162  A    between atoms: _390  and  _393
REMARK  163  A    between atoms: _393  and  _394
REMARK  164  A    between atoms: _396  and  _398
REMARK  165  A    between atoms: _398  and  _399
REMARK  166  A    between atoms: _398  and  _401
REMARK  167  A    between atoms: _401  and  _402
REMARK  168  A    between atoms: _405  and  _407
REMARK  169  A    between atoms: _407  and  _408
REMARK  170  A    between atoms: _407  and  _410
REMARK  171  A    between atoms: _410  and  _411
REMARK  172  A    between atoms: _416  and  _417
REMARK  173  A    between atoms: _419  and  _421
REMARK  174  A    between atoms: _421  and  _422
REMARK  175  A    between atoms: _421  and  _424
REMARK  176  A    between atoms: _424  and  _425
REMARK  177  A    between atoms: _428  and  _430
REMARK  178  A    between atoms: _430  and  _431
REMARK  179  A    between atoms: _434  and  _436
REMARK  180  A    between atoms: _436  and  _437
REMARK  181  A    between atoms: _436  and  _439
REMARK  182  A    between atoms: _439  and  _440
REMARK  183  A    between atoms: _443  and  _445
REMARK  184  A    between atoms: _445  and  _446
REMARK  185  A    between atoms: _445  and  _448
REMARK  186  A    between atoms: _448  and  _449
REMARK  187  A    between atoms: _453  and  _454
REMARK  188  A    between atoms: _459  and  _461
REMARK  189  A    between atoms: _461  and  _462
REMARK  190  A    between atoms: _461  and  _464
REMARK  191  A    between atoms: _464  and  _465
REMARK  192  A    between atoms: _465  and  _466
REMARK  193  A    between atoms: _469  and  _471
REMARK  194  A    between atoms: _471  and  _472
REMARK  195  A    between atoms: _471  and  _474
REMARK  196  A    between atoms: _474  and  _475
REMARK  197  A    between atoms: _478  and  _480
REMARK  198  A    between atoms: _480  and  _481
REMARK  199  A    between atoms: _480  and  _483
REMARK  200  A    between atoms: _483  and  _484
REMARK  201  A    between atoms: _489  and  _491
REMARK  202  A    between atoms: _491  and  _492
REMARK  203  A    between atoms: _491  and  _494
REMARK  204  A    between atoms: _494  and  _495
REMARK  205  A    between atoms: _495  and  _496
REMARK  206  A    between atoms: _496  and  _497
REMARK  207  A    between atoms: _497  and  _498
REMARK  208  A    between atoms: _502  and  _504
REMARK  209  A    between atoms: _504  and  _505
REMARK  210  A    between atoms: _504  and  _507
REMARK  211  A    between atoms: _507  and  _508
REMARK                            x       y       z     vdW  Elec       q    Type
REMARK                         _______ _______ _______ _____ _____    ______ ____
ROOT
ATOM      1  O   HOH     1      30.464 -10.482  12.226  0.00  0.00    +0.000 OA
ENDROOT
TORSDOF 0
REMARK  Name = ../refined-set-2016/1x1z/1x1z_pocket.pdb
REMARK  211 active torsions:
REMARK  status: ('A' for Active; 'I' for Inactive)
REMARK    1  A    between atoms: _1  and  _3
REMARK    2  A    between atoms: _3  and  _4
REMARK    3  A    between atoms: _3  and  _6
REMARK    4  A    between atoms: _6  and  _7
REMARK    5  A    between atoms: _10  and  _12
REMARK    6  A    between atoms: _12  and  _13
REMARK    7  A    between atoms: _12  and  _15
REMARK    8  A    between atoms: _15  and  _16
REMARK    9  A    between atoms: _19  and  _21
REMARK   10  A    between atoms: _21  and  _22
REMARK   11  A    between atoms: _25  and  _27
REMARK   12  A    between atoms: _27  and  _28
REMARK   13  A    between atoms: _27  and  _30
REMARK   14  A    between atoms: _30  and  _31
REMARK   15  A    between atoms: _31  and  _32
REMARK   16  A    between atoms: _34  and  _36
REMARK   17  A    between atoms: _36  and  _37
REMARK   18  A    between atoms: _36  and  _39
REMARK   19  A    between atoms: _39  and  _40
REMARK   20  A    between atoms: _43  and  _45
REMARK   21  A    between atoms: _45  and  _46
REMARK   22  A    between atoms: _45  and  _48
REMARK   23  A    between atoms: _48  and  _49
REMARK   24  A    between atoms: _49  and  _50
REMARK   25  A    between atoms: _50  and  _51
REMARK   26  A    between atoms: _51  and  _52
REMARK   27  A    between atoms: _56  and  _58
REMARK   28  A    between atoms: _58  and  _59
REMARK   29  A    between atoms: _58  and  _61
REMARK   30  A    between atoms: _61  and  _62
REMARK   31  A    between atoms: _65  and  _67
REMARK   32  A    between atoms: _67  and  _68
REMARK   33  A    between atoms: _70  and  _72
REMARK   34  A    between atoms: _72  and  _73
REMARK   35  A    between atoms: _72  and  _75
REMARK   36  A    between atoms: _75  and  _76
REMARK   37  A    between atoms: _81  and  _82
REMARK   38  A    between atoms: _85  and  _86
REMARK   39  A    between atoms: _91  and  _93
REMARK   40  A    between atoms: _93  and  _94
REMARK   41  A    between atoms: _93  and  _96
REMARK   42  A    between atoms: _96  and  _97
REMARK   43  A    between atoms: _100  and  _102
REMARK   44  A    between atoms: _102  and  _103
REMARK   45  A    between atoms: _102  and  _105
REMARK   46  A    between atoms: _105  and  _106
REMARK   47  A    between atoms: _109  and  _111
REMARK   48  A    between atoms: _111  and  _112
REMARK   49  A    between atoms: _111  and  _114
REMARK   50  A    between atoms: _114  and  _115
REMARK   51  A    between atoms: _121  and  _123
REMARK   52  A    between atoms: _123  and  _124
REMARK   53  A    between atoms: _123  and  _126
REMARK   54  A    between atoms: _126  and  _127
REMARK   55  A    between atoms: _127  and  _128
REMARK   56  A    between atoms: _128  and  _129
REMARK   57  A    between atoms: _129  and  _130
REMARK   58  A    between atoms: _134  and  _136
REMARK   59  A    between atoms: _136  and  _137
REMARK   60  A    between atoms: _136  and  _139
REMARK   61  A    between atoms: _139  and  _140
REMARK   62  A    between atoms: _143  and  _145
REMARK   63  A    between atoms: _145  and  _146
REMARK   64  A    between atoms: _145  and  _148
REMARK   65  A    between atoms: _148  and  _149
REMARK   66  A    between atoms: _154  and  _156
REMARK   67  A    between atoms: _156  and  _157
REMARK   68  A    between atoms: _156  and  _159
REMARK   69  A    between atoms: _159  and  _160
REMARK   70  A    between atoms: _163  and  _165
REMARK   71  A    between atoms: _165  and  _166
REMARK   72  A    between atoms: _165  and  _168
REMARK   73  A    between atoms: _168  and  _169
REMARK   74  A    between atoms: _172  and  _174
REMARK   75  A    between atoms: _174  and  _175
REMARK   76  A    between atoms: _174  and  _177
REMARK   77  A    between atoms: _177  and  _178
REMARK   78  A    between atoms: _178  and  _179
REMARK   79  A    between atoms: _182  and  _184
REMARK   80  A    between atoms: _184  and  _185
REMARK   81  A    between atoms: _184  and  _187
REMARK   82  A    between atoms: _187  and  _188
REMARK   83  A    between atoms: _188  and  _189
REMARK   84  A    between atoms: _191  and  _193
REMARK   85  A    between atoms: _193  and  _194
REMARK   86  A    between atoms: _193  and  _196
REMARK   87  A    between atoms: _196  and  _197
REMARK   88  A    between atoms: _199  and  _201
REMARK   89  A    between atoms: _201  and  _202
REMARK   90  A    between atoms: _201  and  _204
REMARK   91  A    between atoms: _204  and  _205
REMARK   92  A    between atoms: _210  and  _212
REMARK   93  A    between atoms: _212  and  _213
REMARK   94  A    between atoms: _216  and  _218
REMARK   95  A    between atoms: _218  and  _219
REMARK   96  A    between atoms: _218  and  _221
REMARK   97  A    between atoms: _221  and  _222
REMARK   98  A    between atoms: _225  and  _227
REMARK   99  A    between atoms: _227  and  _228
REMARK  100  A    between atoms: _227  and  _230
REMARK  101  A    between atoms: _233  and  _235
REMARK  102  A    between atoms: _235  and  _236
REMARK  103  A    between atoms: _239  and  _240
REMARK  104  A    between atoms: _245  and  _247
REMARK  105  A    between atoms: _247  and  _248
REMARK  106  A    between atoms: _247  and  _250
REMARK  107  A    between atoms: _250  and  _251
REMARK  108  A    between atoms: _253  and  _255
REMARK  109  A    between atoms: _255  and  _256
REMARK  110  A    between atoms: _255  and  _258
REMARK  111  A    between atoms: _258  and  _259
REMARK  112  A    between atoms: _262  and  _264
REMARK  113  A    between atoms: _264  and  _265
REMARK  114  A    between atoms: _264  and  _267
REMARK  115  A    between atoms: _267  and  _268
REMARK  116  A    between atoms: _268  and  _269
REMARK  117  A    between atoms: _269  and  _270
REMARK  118  A    between atoms: _279  and  _281
REMARK  119  A    between atoms: _281  and  _282
REMARK  120  A    between atoms: _281  and  _284
REMARK  121  A    between atoms: _284  and  _285
REMARK  122  A    between atoms: _288  and  _290
REMARK  123  A    between atoms: _290  and  _291
REMARK  124  A    between atoms: _290  and  _293
REMARK  125  A    between atoms: _293  and  _294
REMARK  126  A    between atoms: _297  and  _298
REMARK  127  A    between atoms: _303  and  _305
REMARK  128  A    between atoms: _305  and  _306
REMARK  129  A    between atoms: _308  and  _310
REMARK  130  A    between atoms: _310  and  _311
REMARK  131  A    between atoms: _310  and  _313
REMARK  132  A    between atoms: _316  and  _318
REMARK  133  A    between atoms: _318  and  _319
REMARK  134  A    between atoms: _321  and  _323
REMARK  135  A    between atoms: _323  and  _324
REMARK  136  A    between atoms: _327  and  _329
REMARK  137  A    between atoms: _329  and  _330
REMARK  138  A    between atoms: _329  and  _332
REMARK  139  A    between atoms: _332  and  _333
REMARK  140  A    between atoms: _333  and  _334
REMARK  141  A    between atoms: _339  and  _341
REMARK  142  A    between atoms: _341  and  _342
REMARK  143  A    between atoms: _344  and  _346
REMARK  144  A    between atoms: _346  and  _347
REMARK  145  A    between atoms: _349  and  _351
REMARK  146  A    between atoms: _351  and  _352
REMARK  147  A    between atoms: _351  and  _354
REMARK  148  A    between atoms: _354  and  _355
REMARK  149  A    between atoms: _358  and  _360
REMARK  150  A    between atoms: _360  and  _361
REMARK  151  A    between atoms: _360  and  _363
REMARK  152  A    between atoms: _366  and  _368
REMARK  153  A    between atoms: _368  and  _369
REMARK  154  A    between atoms: _371  and  _373
REMARK  155  A    between atoms: _373  and  _374
REMARK  156  A    between atoms: _373  and  _376
REMARK  157  A    between atoms: _376  and  _377
REMARK  158  A    between atoms: _377  and  _378
REMARK  159  A    between atoms: _378  and  _379
REMARK  160  A    between atoms: _388  and  _390
REMARK  161  A    between atoms: _390  and  _391
REMARK  162  A    between atoms: _390  and  _393
REMARK  163  A    between atoms: _393  and  _394
REMARK  164  A    between atoms: _396  and  _398
REMARK  165  A    between atoms: _398  and  _399
REMARK  166  A    between atoms: _398  and  _401
REMARK  167  A    between atoms: _401  and  _402
REMARK  168  A    between atoms: _405  and  _407
REMARK  169  A    between atoms: _407  and  _408
REMARK  170  A    between atoms: _407  and  _410
REMARK  171  A    between atoms: _410  and  _411
REMARK  172  A    between atoms: _416  and  _417
REMARK  173  A    between atoms: _419  and  _421
REMARK  174  A    between atoms: _421  and  _422
REMARK  175  A    between atoms: _421  and  _424
REMARK  176  A    between atoms: _424  and  _425
REMARK  177  A    between atoms: _428  and  _430
REMARK  178  A    between atoms: _430  and  _431
REMARK  179  A    between atoms: _434  and  _436
REMARK  180  A    between atoms: _436  and  _437
REMARK  181  A    between atoms: _436  and  _439
REMARK  182  A    between atoms: _439  and  _440
REMARK  183  A    between atoms: _443  and  _445
REMARK  184  A    between atoms: _445  and  _446
REMARK  185  A    between atoms: _445  and  _448
REMARK  186  A    between atoms: _448  and  _449
REMARK  187  A    between atoms: _453  and  _454
REMARK  188  A    between atoms: _459  and  _461
REMARK  189  A    between atoms: _461  and  _462
REMARK  190  A    between atoms: _461  and  _464
REMARK  191  A    between atoms: _464  and  _465
REMARK  192  A    between atoms: _465  and  _466
REMARK  193  A    between atoms: _469  and  _471
REMARK  194  A    between atoms: _471  and  _472
REMARK  195  A    between atoms: _471  and  _474
REMARK  196  A    between atoms: _474  and  _475
REMARK  197  A    between atoms: _478  and  _480
REMARK  198  A    between atoms: _480  and  _481
REMARK  199  A    between atoms: _480  and  _483
REMARK  200  A    between atoms: _483  and  _484
REMARK  201  A    between atoms: _489  and  _491
REMARK  202  A    between atoms: _491  and  _492
REMARK  203  A    between atoms: _491  and  _494
REMARK  204  A    between atoms: _494  and  _495
REMARK  205  A    between atoms: _495  and  _496
REMARK  206  A    between atoms: _496  and  _497
REMARK  207  A    between atoms: _497  and  _498
REMARK  208  A    between atoms: _502  and  _504
REMARK  209  A    between atoms: _504  and  _505
REMARK  210  A    between atoms: _504  and  _507
REMARK  211  A    between atoms: _507  and  _508
REMARK                            x       y       z     vdW  Elec       q    Type
REMARK                         _______ _______ _______ _____ _____    ______ ____
ROOT
ATOM      1  O   HOH     1      28.406 -10.455   8.908  0.00  0.00    +0.000 OA
ENDROOT
TORSDOF 0
REMARK  Name = ../refined-set-2016/1x1z/1x1z_pocket.pdb
REMARK  211 active torsions:
REMARK  status: ('A' for Active; 'I' for Inactive)
REMARK    1  A    between atoms: _1  and  _3
REMARK    2  A    between atoms: _3  and  _4
REMARK    3  A    between atoms: _3  and  _6
REMARK    4  A    between atoms: _6  and  _7
REMARK    5  A    between atoms: _10  and  _12
REMARK    6  A    between atoms: _12  and  _13
REMARK    7  A    between atoms: _12  and  _15
REMARK    8  A    between atoms: _15  and  _16
REMARK    9  A    between atoms: _19  and  _21
REMARK   10  A    between atoms: _21  and  _22
REMARK   11  A    between atoms: _25  and  _27
REMARK   12  A    between atoms: _27  and  _28
REMARK   13  A    between atoms: _27  and  _30
REMARK   14  A    between atoms: _30  and  _31
REMARK   15  A    between atoms: _31  and  _32
REMARK   16  A    between atoms: _34  and  _36
REMARK   17  A    between atoms: _36  and  _37
REMARK   18  A    between atoms: _36  and  _39
REMARK   19  A    between atoms: _39  and  _40
REMARK   20  A    between atoms: _43  and  _45
REMARK   21  A    between atoms: _45  and  _46
REMARK   22  A    between atoms: _45  and  _48
REMARK   23  A    between atoms: _48  and  _49
REMARK   24  A    between atoms: _49  and  _50
REMARK   25  A    between atoms: _50  and  _51
REMARK   26  A    between atoms: _51  and  _52
REMARK   27  A    between atoms: _56  and  _58
REMARK   28  A    between atoms: _58  and  _59
REMARK   29  A    between atoms: _58  and  _61
REMARK   30  A    between atoms: _61  and  _62
REMARK   31  A    between atoms: _65  and  _67
REMARK   32  A    between atoms: _67  and  _68
REMARK   33  A    between atoms: _70  and  _72
REMARK   34  A    between atoms: _72  and  _73
REMARK   35  A    between atoms: _72  and  _75
REMARK   36  A    between atoms: _75  and  _76
REMARK   37  A    between atoms: _81  and  _82
REMARK   38  A    between atoms: _85  and  _86
REMARK   39  A    between atoms: _91  and  _93
REMARK   40  A    between atoms: _93  and  _94
REMARK   41  A    between atoms: _93  and  _96
REMARK   42  A    between atoms: _96  and  _97
REMARK   43  A    between atoms: _100  and  _102
REMARK   44  A    between atoms: _102  and  _103
REMARK   45  A    between atoms: _102  and  _105
REMARK   46  A    between atoms: _105  and  _106
REMARK   47  A    between atoms: _109  and  _111
REMARK   48  A    between atoms: _111  and  _112
REMARK   49  A    between atoms: _111  and  _114
REMARK   50  A    between atoms: _114  and  _115
REMARK   51  A    between atoms: _121  and  _123
REMARK   52  A    between atoms: _123  and  _124
REMARK   53  A    between atoms: _123  and  _126
REMARK   54  A    between atoms: _126  and  _127
REMARK   55  A    between atoms: _127  and  _128
REMARK   56  A    between atoms: _128  and  _129
REMARK   57  A    between atoms: _129  and  _130
REMARK   58  A    between atoms: _134  and  _136
REMARK   59  A    between atoms: _136  and  _137
REMARK   60  A    between atoms: _136  and  _139
REMARK   61  A    between atoms: _139  and  _140
REMARK   62  A    between atoms: _143  and  _145
REMARK   63  A    between atoms: _145  and  _146
REMARK   64  A    between atoms: _145  and  _148
REMARK   65  A    between atoms: _148  and  _149
REMARK   66  A    between atoms: _154  and  _156
REMARK   67  A    between atoms: _156  and  _157
REMARK   68  A    between atoms: _156  and  _159
REMARK   69  A    between atoms: _159  and  _160
REMARK   70  A    between atoms: _163  and  _165
REMARK   71  A    between atoms: _165  and  _166
REMARK   72  A    between atoms: _165  and  _168
REMARK   73  A    between atoms: _168  and  _169
REMARK   74  A    between atoms: _172  and  _174
REMARK   75  A    between atoms: _174  and  _175
REMARK   76  A    between atoms: _174  and  _177
REMARK   77  A    between atoms: _177  and  _178
REMARK   78  A    between atoms: _178  and  _179
REMARK   79  A    between atoms: _182  and  _184
REMARK   80  A    between atoms: _184  and  _185
REMARK   81  A    between atoms: _184  and  _187
REMARK   82  A    between atoms: _187  and  _188
REMARK   83  A    between atoms: _188  and  _189
REMARK   84  A    between atoms: _191  and  _193
REMARK   85  A    between atoms: _193  and  _194
REMARK   86  A    between atoms: _193  and  _196
REMARK   87  A    between atoms: _196  and  _197
REMARK   88  A    between atoms: _199  and  _201
REMARK   89  A    between atoms: _201  and  _202
REMARK   90  A    between atoms: _201  and  _204
REMARK   91  A    between atoms: _204  and  _205
REMARK   92  A    between atoms: _210  and  _212
REMARK   93  A    between atoms: _212  and  _213
REMARK   94  A    between atoms: _216  and  _218
REMARK   95  A    between atoms: _218  and  _219
REMARK   96  A    between atoms: _218  and  _221
REMARK   97  A    between atoms: _221  and  _222
REMARK   98  A    between atoms: _225  and  _227
REMARK   99  A    between atoms: _227  and  _228
REMARK  100  A    between atoms: _227  and  _230
REMARK  101  A    between atoms: _233  and  _235
REMARK  102  A    between atoms: _235  and  _236
REMARK  103  A    between atoms: _239  and  _240
REMARK  104  A    between atoms: _245  and  _247
REMARK  105  A    between atoms: _247  and  _248
REMARK  106  A    between atoms: _247  and  _250
REMARK  107  A    between atoms: _250  and  _251
REMARK  108  A    between atoms: _253  and  _255
REMARK  109  A    between atoms: _255  and  _256
REMARK  110  A    between atoms: _255  and  _258
REMARK  111  A    between atoms: _258  and  _259
REMARK  112  A    between atoms: _262  and  _264
REMARK  113  A    between atoms: _264  and  _265
REMARK  114  A    between atoms: _264  and  _267
REMARK  115  A    between atoms: _267  and  _268
REMARK  116  A    between atoms: _268  and  _269
REMARK  117  A    between atoms: _269  and  _270
REMARK  118  A    between atoms: _279  and  _281
REMARK  119  A    between atoms: _281  and  _282
REMARK  120  A    between atoms: _281  and  _284
REMARK  121  A    between atoms: _284  and  _285
REMARK  122  A    between atoms: _288  and  _290
REMARK  123  A    between atoms: _290  and  _291
REMARK  124  A    between atoms: _290  and  _293
REMARK  125  A    between atoms: _293  and  _294
REMARK  126  A    between atoms: _297  and  _298
REMARK  127  A    between atoms: _303  and  _305
REMARK  128  A    between atoms: _305  and  _306
REMARK  129  A    between atoms: _308  and  _310
REMARK  130  A    between atoms: _310  and  _311
REMARK  131  A    between atoms: _310  and  _313
REMARK  132  A    between atoms: _316  and  _318
REMARK  133  A    between atoms: _318  and  _319
REMARK  134  A    between atoms: _321  and  _323
REMARK  135  A    between atoms: _323  and  _324
REMARK  136  A    between atoms: _327  and  _329
REMARK  137  A    between atoms: _329  and  _330
REMARK  138  A    between atoms: _329  and  _332
REMARK  139  A    between atoms: _332  and  _333
REMARK  140  A    between atoms: _333  and  _334
REMARK  141  A    between atoms: _339  and  _341
REMARK  142  A    between atoms: _341  and  _342
REMARK  143  A    between atoms: _344  and  _346
REMARK  144  A    between atoms: _346  and  _347
REMARK  145  A    between atoms: _349  and  _351
REMARK  146  A    between atoms: _351  and  _352
REMARK  147  A    between atoms: _351  and  _354
REMARK  148  A    between atoms: _354  and  _355
REMARK  149  A    between atoms: _358  and  _360
REMARK  150  A    between atoms: _360  and  _361
REMARK  151  A    between atoms: _360  and  _363
REMARK  152  A    between atoms: _366  and  _368
REMARK  153  A    between atoms: _368  and  _369
REMARK  154  A    between atoms: _371  and  _373
REMARK  155  A    between atoms: _373  and  _374
REMARK  156  A    between atoms: _373  and  _376
REMARK  157  A    between atoms: _376  and  _377
REMARK  158  A    between atoms: _377  and  _378
REMARK  159  A    between atoms: _378  and  _379
REMARK  160  A    between atoms: _388  and  _390
REMARK  161  A    between atoms: _390  and  _391
REMARK  162  A    between atoms: _390  and  _393
REMARK  163  A    between atoms: _393  and  _394
REMARK  164  A    between atoms: _396  and  _398
REMARK  165  A    between atoms: _398  and  _399
REMARK  166  A    between atoms: _398  and  _401
REMARK  167  A    between atoms: _401  and  _402
REMARK  168  A    between atoms: _405  and  _407
REMARK  169  A    between atoms: _407  and  _408
REMARK  170  A    between atoms: _407  and  _410
REMARK  171  A    between atoms: _410  and  _411
REMARK  172  A    between atoms: _416  and  _417
REMARK  173  A    between atoms: _419  and  _421
REMARK  174  A    between atoms: _421  and  _422
REMARK  175  A    between atoms: _421  and  _424
REMARK  176  A    between atoms: _424  and  _425
REMARK  177  A    between atoms: _428  and  _430
REMARK  178  A    between atoms: _430  and  _431
REMARK  179  A    between atoms: _434  and  _436
REMARK  180  A    between atoms: _436  and  _437
REMARK  181  A    between atoms: _436  and  _439
REMARK  182  A    between atoms: _439  and  _440
REMARK  183  A    between atoms: _443  and  _445
REMARK  184  A    between atoms: _445  and  _446
REMARK  185  A    between atoms: _445  and  _448
REMARK  186  A    between atoms: _448  and  _449
REMARK  187  A    between atoms: _453  and  _454
REMARK  188  A    between atoms: _459  and  _461
REMARK  189  A    between atoms: _461  and  _462
REMARK  190  A    between atoms: _461  and  _464
REMARK  191  A    between atoms: _464  and  _465
REMARK  192  A    between atoms: _465  and  _466
REMARK  193  A    between atoms: _469  and  _471
REMARK  194  A    between atoms: _471  and  _472
REMARK  195  A    between atoms: _471  and  _474
REMARK  196  A    between atoms: _474  and  _475
REMARK  197  A    between atoms: _478  and  _480
REMARK  198  A    between atoms: _480  and  _481
REMARK  199  A    between atoms: _480  and  _483
REMARK  200  A    between atoms: _483  and  _484
REMARK  201  A    between atoms: _489  and  _491
REMARK  202  A    between atoms: _491  and  _492
REMARK  203  A    between atoms: _491  and  _494
REMARK  204  A    between atoms: _494  and  _495
REMARK  205  A    between atoms: _495  and  _496
REMARK  206  A    between atoms: _496  and  _497
REMARK  207  A    between atoms: _497  and  _498
REMARK  208  A    between atoms: _502  and  _504
REMARK  209  A    between atoms: _504  and  _505
REMARK  210  A    between atoms: _504  and  _507
REMARK  211  A    between atoms: _507  and  _508
REMARK                            x       y       z     vdW  Elec       q    Type
REMARK                         _______ _______ _______ _____ _____    ______ ____
ROOT
ATOM      1  O   HOH     1      19.908 -10.376   9.847  0.00  0.00    +0.000 OA
ENDROOT
TORSDOF 0
