REMARK  Name = ../refined-set-2016/2isw/2isw_pocket.pdb
REMARK  174 active torsions:
REMARK  status: ('A' for Active; 'I' for Inactive)
REMARK    1  A    between atoms: _1  and  _3
REMARK    2  A    between atoms: _3  and  _4
REMARK    3  A    between atoms: _7  and  _9
REMARK    4  A    between atoms: _9  and  _10
REMARK    5  A    between atoms: _9  and  _12
REMARK    6  A    between atoms: _12  and  _13
REMARK    7  A    between atoms: _19  and  _21
REMARK    8  A    between atoms: _21  and  _22
REMARK    9  A    between atoms: _21  and  _24
REMARK   10  A    between atoms: _24  and  _25
REMARK   11  A    between atoms: _30  and  _32
REMARK   12  A    between atoms: _32  and  _33
REMARK   13  A    between atoms: _32  and  _35
REMARK   14  A    between atoms: _35  and  _36
REMARK   15  A    between atoms: _36  and  _37
REMARK   16  A    between atoms: _42  and  _44
REMARK   17  A    between atoms: _44  and  _45
REMARK   18  A    between atoms: _44  and  _47
REMARK   19  A    between atoms: _47  and  _48
REMARK   20  A    between atoms: _50  and  _52
REMARK   21  A    between atoms: _52  and  _53
REMARK   22  A    between atoms: _52  and  _55
REMARK   23  A    between atoms: _55  and  _56
REMARK   24  A    between atoms: _61  and  _63
REMARK   25  A    between atoms: _63  and  _64
REMARK   26  A    between atoms: _63  and  _66
REMARK   27  A    between atoms: _66  and  _67
REMARK   28  A    between atoms: _70  and  _72
REMARK   29  A    between atoms: _72  and  _73
REMARK   30  A    between atoms: _72  and  _75
REMARK   31  A    between atoms: _75  and  _76
REMARK   32  A    between atoms: _80  and  ZN_397
REMARK   33  A    between atoms: _81  and  _83
REMARK   34  A    between atoms: _83  and  _84
REMARK   35  A    between atoms: _83  and  _86
REMARK   36  A    between atoms: _86  and  _87
REMARK   37  A    between atoms: _87  and  _88
REMARK   38  A    between atoms: _90  and  _92
REMARK   39  A    between atoms: _92  and  _93
REMARK   40  A    between atoms: _92  and  _95
REMARK   41  A    between atoms: _95  and  _96
REMARK   42  A    between atoms: _96  and  _97
REMARK   43  A    between atoms: _100  and  _102
REMARK   44  A    between atoms: _102  and  _103
REMARK   45  A    between atoms: _102  and  _105
REMARK   46  A    between atoms: _105  and  _106
REMARK   47  A    between atoms: _106  and  _107
REMARK   48  A    between atoms: _110  and  _112
REMARK   49  A    between atoms: _112  and  _113
REMARK   50  A    between atoms: _112  and  _115
REMARK   51  A    between atoms: _115  and  _116
REMARK   52  A    between atoms: _119  and  _121
REMARK   53  A    between atoms: _121  and  _122
REMARK   54  A    between atoms: _121  and  _124
REMARK   55  A    between atoms: _124  and  _125
REMARK   56  A    between atoms: _128  and  _130
REMARK   57  A    between atoms: _130  and  _131
REMARK   58  A    between atoms: _130  and  _133
REMARK   59  A    between atoms: _133  and  _134
REMARK   60  A    between atoms: _136  and  _138
REMARK   61  A    between atoms: _138  and  _139
REMARK   62  A    between atoms: _138  and  _141
REMARK   63  A    between atoms: _141  and  _142
REMARK   64  A    between atoms: _146  and  ZN_397
REMARK   65  A    between atoms: _147  and  _149
REMARK   66  A    between atoms: _149  and  _150
REMARK   67  A    between atoms: _152  and  _154
REMARK   68  A    between atoms: _154  and  _155
REMARK   69  A    between atoms: _158  and  _160
REMARK   70  A    between atoms: _160  and  _161
REMARK   71  A    between atoms: _160  and  _163
REMARK   72  A    between atoms: _163  and  _164
REMARK   73  A    between atoms: _169  and  _170
REMARK   74  A    between atoms: _172  and  _174
REMARK   75  A    between atoms: _174  and  _175
REMARK   76  A    between atoms: _174  and  _177
REMARK   77  A    between atoms: _177  and  _178
REMARK   78  A    between atoms: _178  and  _179
REMARK   79  A    between atoms: _179  and  _180
REMARK   80  A    between atoms: _180  and  _181
REMARK   81  A    between atoms: _185  and  _187
REMARK   82  A    between atoms: _187  and  _188
REMARK   83  A    between atoms: _187  and  _190
REMARK   84  A    between atoms: _193  and  _195
REMARK   85  A    between atoms: _195  and  _196
REMARK   86  A    between atoms: _195  and  _198
REMARK   87  A    between atoms: _198  and  _199
REMARK   88  A    between atoms: _199  and  _200
REMARK   89  A    between atoms: _202  and  _204
REMARK   90  A    between atoms: _204  and  _205
REMARK   91  A    between atoms: _204  and  _207
REMARK   92  A    between atoms: _207  and  _208
REMARK   93  A    between atoms: _209  and  ZN_397
REMARK   94  A    between atoms: _213  and  _215
REMARK   95  A    between atoms: _215  and  _216
REMARK   96  A    between atoms: _218  and  _220
REMARK   97  A    between atoms: _220  and  _221
REMARK   98  A    between atoms: _220  and  _223
REMARK   99  A    between atoms: _223  and  _224
REMARK  100  A    between atoms: _226  and  _228
REMARK  101  A    between atoms: _228  and  _229
REMARK  102  A    between atoms: _228  and  _231
REMARK  103  A    between atoms: _231  and  _232
REMARK  104  A    between atoms: _234  and  _236
REMARK  105  A    between atoms: _236  and  _237
REMARK  106  A    between atoms: _236  and  _239
REMARK  107  A    between atoms: _239  and  _240
REMARK  108  A    between atoms: _242  and  _244
REMARK  109  A    between atoms: _244  and  _245
REMARK  110  A    between atoms: _244  and  _247
REMARK  111  A    between atoms: _250  and  _252
REMARK  112  A    between atoms: _252  and  _253
REMARK  113  A    between atoms: _252  and  _255
REMARK  114  A    between atoms: _258  and  _260
REMARK  115  A    between atoms: _260  and  _261
REMARK  116  A    between atoms: _263  and  _265
REMARK  117  A    between atoms: _265  and  _266
REMARK  118  A    between atoms: _265  and  _268
REMARK  119  A    between atoms: _271  and  _273
REMARK  120  A    between atoms: _273  and  _274
REMARK  121  A    between atoms: _273  and  _276
REMARK  122  A    between atoms: _276  and  _277
REMARK  123  A    between atoms: _277  and  _278
REMARK  124  A    between atoms: _278  and  _279
REMARK  125  A    between atoms: _279  and  _280
REMARK  126  A    between atoms: _284  and  _286
REMARK  127  A    between atoms: _286  and  _287
REMARK  128  A    between atoms: _286  and  _289
REMARK  129  A    between atoms: _289  and  _290
REMARK  130  A    between atoms: _293  and  _295
REMARK  131  A    between atoms: _295  and  _296
REMARK  132  A    between atoms: _295  and  _298
REMARK  133  A    between atoms: _298  and  _299
REMARK  134  A    between atoms: _304  and  _306
REMARK  135  A    between atoms: _306  and  _307
REMARK  136  A    between atoms: _306  and  _309
REMARK  137  A    between atoms: _312  and  _314
REMARK  138  A    between atoms: _314  and  _315
REMARK  139  A    between atoms: _314  and  _317
REMARK  140  A    between atoms: _317  and  _318
REMARK  141  A    between atoms: _321  and  _323
REMARK  142  A    between atoms: _323  and  _324
REMARK  143  A    between atoms: _323  and  _326
REMARK  144  A    between atoms: _326  and  _327
REMARK  145  A    between atoms: _329  and  _331
REMARK  146  A    between atoms: _331  and  _332
REMARK  147  A    between atoms: _331  and  _334
REMARK  148  A    between atoms: _334  and  _335
REMARK  149  A    between atoms: _338  and  _340
REMARK  150  A    between atoms: _340  and  _341
REMARK  151  A    between atoms: _340  and  _343
REMARK  152  A    between atoms: _343  and  _344
REMARK  153  A    between atoms: _346  and  _348
REMARK  154  A    between atoms: _348  and  _349
REMARK  155  A    between atoms: _348  and  _351
REMARK  156  A    between atoms: _351  and  _352
REMARK  157  A    between atoms: _352  and  _353
REMARK  158  A    between atoms: _353  and  _354
REMARK  159  A    between atoms: _363  and  _365
REMARK  160  A    between atoms: _365  and  _366
REMARK  161  A    between atoms: _365  and  _368
REMARK  162  A    between atoms: _368  and  _369
REMARK  163  A    between atoms: _369  and  _370
REMARK  164  A    between atoms: _372  and  _374
REMARK  165  A    between atoms: _374  and  _375
REMARK  166  A    between atoms: _374  and  _377
REMARK  167  A    between atoms: _377  and  _378
REMARK  168  A    between atoms: _378  and  _379
REMARK  169  A    between atoms: _379  and  _380
REMARK  170  A    between atoms: _380  and  _381
REMARK  171  A    between atoms: _385  and  _387
REMARK  172  A    between atoms: _387  and  _388
REMARK  173  A    between atoms: _387  and  _390
REMARK  174  A    between atoms: _390  and  _391
REMARK                            x       y       z     vdW  Elec       q    Type
REMARK                         _______ _______ _______ _____ _____    ______ ____
ROOT
ATOM      1  CA  PHE A   2     -24.742   7.762  53.943  0.00  0.00    +0.153 C 
ENDROOT
BRANCH   1   4
ATOM      2  C   ALA A   1     -23.380   9.338  52.722  0.00  0.00    +0.238 C 
ATOM      3  O   ALA A   1     -24.032  10.285  53.155  0.00  0.00    -0.274 OA
ATOM      4  N   PHE A   2     -23.585   8.077  53.107  0.00  0.00    -0.297 N 
ATOM      5  H   PHE A   2     -22.928   7.326  52.815  0.00  0.00    +0.150 HD
BRANCH   2   6
ATOM      6  CA  ALA A   1     -22.267   9.534  51.694  0.00  0.00    +0.145 C 
ATOM      7  CB  ALA A   1     -21.241  10.566  52.149  0.00  0.00    +0.028 C 
BRANCH   6   8
ATOM      8  N   ALA A   1     -22.996  10.026  50.555  0.00  0.00    -0.238 NA
ATOM      9  H   ALA A   1     -23.518  10.921  50.646  0.00  0.00    +0.142 HD
ENDBRANCH   6   8
ENDBRANCH   2   6
ENDBRANCH   1   4
BRANCH   1  10
ATOM     10  C   PHE A   2     -24.326   7.311  55.323  0.00  0.00    +0.241 C 
ATOM     11  N   ASN A   3     -24.842   7.969  56.361  0.00  0.00    -0.298 N 
ATOM     12  H   ASN A   3     -25.491   8.768  56.214  0.00  0.00    +0.150 HD
ATOM     13  O   PHE A   2     -23.521   6.407  55.453  0.00  0.00    -0.273 OA
BRANCH  11  14
ATOM     14  CA  ASN A   3     -24.475   7.543  57.709  0.00  0.00    +0.146 C 
BRANCH  14  15
ATOM     15  C   ASN A   3     -25.154   6.214  58.004  0.00  0.00    +0.227 C 
ATOM     16  O   ASN A   3     -26.306   6.014  57.646  0.00  0.00    -0.286 OA
ENDBRANCH  14  15
BRANCH  14  17
ATOM     17  CB  ASN A   3     -24.934   8.566  58.730  0.00  0.00    +0.112 C 
BRANCH  17  18
ATOM     18  CG  ASN A   3     -24.182   9.833  58.620  0.00  0.00    +0.222 C 
ATOM     19  ND2 ASN A   3     -23.309  10.065  59.562  0.00  0.00    -0.329 N 
ATOM     20 HD21 ASN A   3     -23.202   9.393  60.348  0.00  0.00    +0.145 HD
ATOM     21 HD22 ASN A   3     -22.721  10.922  59.526  0.00  0.00    +0.145 HD
ATOM     22  OD1 ASN A   3     -24.355  10.598  57.657  0.00  0.00    -0.275 OA
ENDBRANCH  17  18
ENDBRANCH  14  17
ENDBRANCH  11  14
ENDBRANCH   1  10
BRANCH   1  23
ATOM     23  CB  PHE A   2     -25.515   6.640  53.247  0.00  0.00    +0.055 C 
BRANCH  23  24
ATOM     24  CG  PHE A   2     -25.869   6.966  51.819  0.00  0.00    -0.020 A 
ATOM     25  CD2 PHE A   2     -26.834   7.942  51.554  0.00  0.00    -0.004 A 
ATOM     26  CE2 PHE A   2     -27.147   8.302  50.240  0.00  0.00    -0.000 A 
ATOM     27  CZ  PHE A   2     -26.505   7.692  49.182  0.00  0.00    -0.000 A 
ATOM     28  CE1 PHE A   2     -25.537   6.710  49.412  0.00  0.00    -0.000 A 
ATOM     29  CD1 PHE A   2     -25.217   6.349  50.744  0.00  0.00    -0.004 A 
ENDBRANCH  23  24
ENDBRANCH   1  23
TORSDOF 10
REMARK  Name = ../refined-set-2016/2isw/2isw_pocket.pdb
REMARK  174 active torsions:
REMARK  status: ('A' for Active; 'I' for Inactive)
REMARK    1  A    between atoms: _1  and  _3
REMARK    2  A    between atoms: _3  and  _4
REMARK    3  A    between atoms: _7  and  _9
REMARK    4  A    between atoms: _9  and  _10
REMARK    5  A    between atoms: _9  and  _12
REMARK    6  A    between atoms: _12  and  _13
REMARK    7  A    between atoms: _19  and  _21
REMARK    8  A    between atoms: _21  and  _22
REMARK    9  A    between atoms: _21  and  _24
REMARK   10  A    between atoms: _24  and  _25
REMARK   11  A    between atoms: _30  and  _32
REMARK   12  A    between atoms: _32  and  _33
REMARK   13  A    between atoms: _32  and  _35
REMARK   14  A    between atoms: _35  and  _36
REMARK   15  A    between atoms: _36  and  _37
REMARK   16  A    between atoms: _42  and  _44
REMARK   17  A    between atoms: _44  and  _45
REMARK   18  A    between atoms: _44  and  _47
REMARK   19  A    between atoms: _47  and  _48
REMARK   20  A    between atoms: _50  and  _52
REMARK   21  A    between atoms: _52  and  _53
REMARK   22  A    between atoms: _52  and  _55
REMARK   23  A    between atoms: _55  and  _56
REMARK   24  A    between atoms: _61  and  _63
REMARK   25  A    between atoms: _63  and  _64
REMARK   26  A    between atoms: _63  and  _66
REMARK   27  A    between atoms: _66  and  _67
REMARK   28  A    between atoms: _70  and  _72
REMARK   29  A    between atoms: _72  and  _73
REMARK   30  A    between atoms: _72  and  _75
REMARK   31  A    between atoms: _75  and  _76
REMARK   32  A    between atoms: _80  and  ZN_397
REMARK   33  A    between atoms: _81  and  _83
REMARK   34  A    between atoms: _83  and  _84
REMARK   35  A    between atoms: _83  and  _86
REMARK   36  A    between atoms: _86  and  _87
REMARK   37  A    between atoms: _87  and  _88
REMARK   38  A    between atoms: _90  and  _92
REMARK   39  A    between atoms: _92  and  _93
REMARK   40  A    between atoms: _92  and  _95
REMARK   41  A    between atoms: _95  and  _96
REMARK   42  A    between atoms: _96  and  _97
REMARK   43  A    between atoms: _100  and  _102
REMARK   44  A    between atoms: _102  and  _103
REMARK   45  A    between atoms: _102  and  _105
REMARK   46  A    between atoms: _105  and  _106
REMARK   47  A    between atoms: _106  and  _107
REMARK   48  A    between atoms: _110  and  _112
REMARK   49  A    between atoms: _112  and  _113
REMARK   50  A    between atoms: _112  and  _115
REMARK   51  A    between atoms: _115  and  _116
REMARK   52  A    between atoms: _119  and  _121
REMARK   53  A    between atoms: _121  and  _122
REMARK   54  A    between atoms: _121  and  _124
REMARK   55  A    between atoms: _124  and  _125
REMARK   56  A    between atoms: _128  and  _130
REMARK   57  A    between atoms: _130  and  _131
REMARK   58  A    between atoms: _130  and  _133
REMARK   59  A    between atoms: _133  and  _134
REMARK   60  A    between atoms: _136  and  _138
REMARK   61  A    between atoms: _138  and  _139
REMARK   62  A    between atoms: _138  and  _141
REMARK   63  A    between atoms: _141  and  _142
REMARK   64  A    between atoms: _146  and  ZN_397
REMARK   65  A    between atoms: _147  and  _149
REMARK   66  A    between atoms: _149  and  _150
REMARK   67  A    between atoms: _152  and  _154
REMARK   68  A    between atoms: _154  and  _155
REMARK   69  A    between atoms: _158  and  _160
REMARK   70  A    between atoms: _160  and  _161
REMARK   71  A    between atoms: _160  and  _163
REMARK   72  A    between atoms: _163  and  _164
REMARK   73  A    between atoms: _169  and  _170
REMARK   74  A    between atoms: _172  and  _174
REMARK   75  A    between atoms: _174  and  _175
REMARK   76  A    between atoms: _174  and  _177
REMARK   77  A    between atoms: _177  and  _178
REMARK   78  A    between atoms: _178  and  _179
REMARK   79  A    between atoms: _179  and  _180
REMARK   80  A    between atoms: _180  and  _181
REMARK   81  A    between atoms: _185  and  _187
REMARK   82  A    between atoms: _187  and  _188
REMARK   83  A    between atoms: _187  and  _190
REMARK   84  A    between atoms: _193  and  _195
REMARK   85  A    between atoms: _195  and  _196
REMARK   86  A    between atoms: _195  and  _198
REMARK   87  A    between atoms: _198  and  _199
REMARK   88  A    between atoms: _199  and  _200
REMARK   89  A    between atoms: _202  and  _204
REMARK   90  A    between atoms: _204  and  _205
REMARK   91  A    between atoms: _204  and  _207
REMARK   92  A    between atoms: _207  and  _208
REMARK   93  A    between atoms: _209  and  ZN_397
REMARK   94  A    between atoms: _213  and  _215
REMARK   95  A    between atoms: _215  and  _216
REMARK   96  A    between atoms: _218  and  _220
REMARK   97  A    between atoms: _220  and  _221
REMARK   98  A    between atoms: _220  and  _223
REMARK   99  A    between atoms: _223  and  _224
REMARK  100  A    between atoms: _226  and  _228
REMARK  101  A    between atoms: _228  and  _229
REMARK  102  A    between atoms: _228  and  _231
REMARK  103  A    between atoms: _231  and  _232
REMARK  104  A    between atoms: _234  and  _236
REMARK  105  A    between atoms: _236  and  _237
REMARK  106  A    between atoms: _236  and  _239
REMARK  107  A    between atoms: _239  and  _240
REMARK  108  A    between atoms: _242  and  _244
REMARK  109  A    between atoms: _244  and  _245
REMARK  110  A    between atoms: _244  and  _247
REMARK  111  A    between atoms: _250  and  _252
REMARK  112  A    between atoms: _252  and  _253
REMARK  113  A    between atoms: _252  and  _255
REMARK  114  A    between atoms: _258  and  _260
REMARK  115  A    between atoms: _260  and  _261
REMARK  116  A    between atoms: _263  and  _265
REMARK  117  A    between atoms: _265  and  _266
REMARK  118  A    between atoms: _265  and  _268
REMARK  119  A    between atoms: _271  and  _273
REMARK  120  A    between atoms: _273  and  _274
REMARK  121  A    between atoms: _273  and  _276
REMARK  122  A    between atoms: _276  and  _277
REMARK  123  A    between atoms: _277  and  _278
REMARK  124  A    between atoms: _278  and  _279
REMARK  125  A    between atoms: _279  and  _280
REMARK  126  A    between atoms: _284  and  _286
REMARK  127  A    between atoms: _286  and  _287
REMARK  128  A    between atoms: _286  and  _289
REMARK  129  A    between atoms: _289  and  _290
REMARK  130  A    between atoms: _293  and  _295
REMARK  131  A    between atoms: _295  and  _296
REMARK  132  A    between atoms: _295  and  _298
REMARK  133  A    between atoms: _298  and  _299
REMARK  134  A    between atoms: _304  and  _306
REMARK  135  A    between atoms: _306  and  _307
REMARK  136  A    between atoms: _306  and  _309
REMARK  137  A    between atoms: _312  and  _314
REMARK  138  A    between atoms: _314  and  _315
REMARK  139  A    between atoms: _314  and  _317
REMARK  140  A    between atoms: _317  and  _318
REMARK  141  A    between atoms: _321  and  _323
REMARK  142  A    between atoms: _323  and  _324
REMARK  143  A    between atoms: _323  and  _326
REMARK  144  A    between atoms: _326  and  _327
REMARK  145  A    between atoms: _329  and  _331
REMARK  146  A    between atoms: _331  and  _332
REMARK  147  A    between atoms: _331  and  _334
REMARK  148  A    between atoms: _334  and  _335
REMARK  149  A    between atoms: _338  and  _340
REMARK  150  A    between atoms: _340  and  _341
REMARK  151  A    between atoms: _340  and  _343
REMARK  152  A    between atoms: _343  and  _344
REMARK  153  A    between atoms: _346  and  _348
REMARK  154  A    between atoms: _348  and  _349
REMARK  155  A    between atoms: _348  and  _351
REMARK  156  A    between atoms: _351  and  _352
REMARK  157  A    between atoms: _352  and  _353
REMARK  158  A    between atoms: _353  and  _354
REMARK  159  A    between atoms: _363  and  _365
REMARK  160  A    between atoms: _365  and  _366
REMARK  161  A    between atoms: _365  and  _368
REMARK  162  A    between atoms: _368  and  _369
REMARK  163  A    between atoms: _369  and  _370
REMARK  164  A    between atoms: _372  and  _374
REMARK  165  A    between atoms: _374  and  _375
REMARK  166  A    between atoms: _374  and  _377
REMARK  167  A    between atoms: _377  and  _378
REMARK  168  A    between atoms: _378  and  _379
REMARK  169  A    between atoms: _379  and  _380
REMARK  170  A    between atoms: _380  and  _381
REMARK  171  A    between atoms: _385  and  _387
REMARK  172  A    between atoms: _387  and  _388
REMARK  173  A    between atoms: _387  and  _390
REMARK  174  A    between atoms: _390  and  _391
REMARK                            x       y       z     vdW  Elec       q    Type
REMARK                         _______ _______ _______ _____ _____    ______ ____
ROOT
ATOM      1  CB  GLN A   1     -19.921   8.519  56.760  0.00  0.00    +0.035 C 
ENDROOT
BRANCH   1   2
ATOM      2  CA  GLN A   1     -19.929   7.034  57.076  0.00  0.00    +0.134 C 
BRANCH   2   3
ATOM      3  N   GLN A   1     -20.626   6.277  56.053  0.00  0.00    -0.239 NA
ATOM      4  H   GLN A   1     -21.641   6.404  55.866  0.00  0.00    +0.142 HD
ENDBRANCH   2   3
BRANCH   2   5
ATOM      5  C   GLN A   1     -20.474   6.724  58.440  0.00  0.00    +0.224 C 
ATOM      6  O   GLN A   1     -21.668   6.437  58.600  0.00  0.00    -0.287 OA
ENDBRANCH   2   5
ENDBRANCH   1   2
BRANCH   1   7
ATOM      7  CG  GLN A   1     -21.202   9.144  56.309  0.00  0.00    +0.087 C 
BRANCH   7   8
ATOM      8  CD  GLN A   1     -21.019  10.627  55.915  0.00  0.00    +0.219 C 
ATOM      9  NE2 GLN A   1     -22.059  11.402  56.107  0.00  0.00    -0.329 N 
ATOM     10 HE21 GLN A   1     -22.926  11.014  56.530  0.00  0.00    +0.145 HD
ATOM     11 HE22 GLN A   1     -22.017  12.405  55.836  0.00  0.00    +0.145 HD
ATOM     12  OE1 GLN A   1     -19.975  11.044  55.418  0.00  0.00    -0.275 OA
ENDBRANCH   7   8
ENDBRANCH   1   7
TORSDOF 5
REMARK  Name = ../refined-set-2016/2isw/2isw_pocket.pdb
REMARK  174 active torsions:
REMARK  status: ('A' for Active; 'I' for Inactive)
REMARK    1  A    between atoms: _1  and  _3
REMARK    2  A    between atoms: _3  and  _4
REMARK    3  A    between atoms: _7  and  _9
REMARK    4  A    between atoms: _9  and  _10
REMARK    5  A    between atoms: _9  and  _12
REMARK    6  A    between atoms: _12  and  _13
REMARK    7  A    between atoms: _19  and  _21
REMARK    8  A    between atoms: _21  and  _22
REMARK    9  A    between atoms: _21  and  _24
REMARK   10  A    between atoms: _24  and  _25
REMARK   11  A    between atoms: _30  and  _32
REMARK   12  A    between atoms: _32  and  _33
REMARK   13  A    between atoms: _32  and  _35
REMARK   14  A    between atoms: _35  and  _36
REMARK   15  A    between atoms: _36  and  _37
REMARK   16  A    between atoms: _42  and  _44
REMARK   17  A    between atoms: _44  and  _45
REMARK   18  A    between atoms: _44  and  _47
REMARK   19  A    between atoms: _47  and  _48
REMARK   20  A    between atoms: _50  and  _52
REMARK   21  A    between atoms: _52  and  _53
REMARK   22  A    between atoms: _52  and  _55
REMARK   23  A    between atoms: _55  and  _56
REMARK   24  A    between atoms: _61  and  _63
REMARK   25  A    between atoms: _63  and  _64
REMARK   26  A    between atoms: _63  and  _66
REMARK   27  A    between atoms: _66  and  _67
REMARK   28  A    between atoms: _70  and  _72
REMARK   29  A    between atoms: _72  and  _73
REMARK   30  A    between atoms: _72  and  _75
REMARK   31  A    between atoms: _75  and  _76
REMARK   32  A    between atoms: _80  and  ZN_397
REMARK   33  A    between atoms: _81  and  _83
REMARK   34  A    between atoms: _83  and  _84
REMARK   35  A    between atoms: _83  and  _86
REMARK   36  A    between atoms: _86  and  _87
REMARK   37  A    between atoms: _87  and  _88
REMARK   38  A    between atoms: _90  and  _92
REMARK   39  A    between atoms: _92  and  _93
REMARK   40  A    between atoms: _92  and  _95
REMARK   41  A    between atoms: _95  and  _96
REMARK   42  A    between atoms: _96  and  _97
REMARK   43  A    between atoms: _100  and  _102
REMARK   44  A    between atoms: _102  and  _103
REMARK   45  A    between atoms: _102  and  _105
REMARK   46  A    between atoms: _105  and  _106
REMARK   47  A    between atoms: _106  and  _107
REMARK   48  A    between atoms: _110  and  _112
REMARK   49  A    between atoms: _112  and  _113
REMARK   50  A    between atoms: _112  and  _115
REMARK   51  A    between atoms: _115  and  _116
REMARK   52  A    between atoms: _119  and  _121
REMARK   53  A    between atoms: _121  and  _122
REMARK   54  A    between atoms: _121  and  _124
REMARK   55  A    between atoms: _124  and  _125
REMARK   56  A    between atoms: _128  and  _130
REMARK   57  A    between atoms: _130  and  _131
REMARK   58  A    between atoms: _130  and  _133
REMARK   59  A    between atoms: _133  and  _134
REMARK   60  A    between atoms: _136  and  _138
REMARK   61  A    between atoms: _138  and  _139
REMARK   62  A    between atoms: _138  and  _141
REMARK   63  A    between atoms: _141  and  _142
REMARK   64  A    between atoms: _146  and  ZN_397
REMARK   65  A    between atoms: _147  and  _149
REMARK   66  A    between atoms: _149  and  _150
REMARK   67  A    between atoms: _152  and  _154
REMARK   68  A    between atoms: _154  and  _155
REMARK   69  A    between atoms: _158  and  _160
REMARK   70  A    between atoms: _160  and  _161
REMARK   71  A    between atoms: _160  and  _163
REMARK   72  A    between atoms: _163  and  _164
REMARK   73  A    between atoms: _169  and  _170
REMARK   74  A    between atoms: _172  and  _174
REMARK   75  A    between atoms: _174  and  _175
REMARK   76  A    between atoms: _174  and  _177
REMARK   77  A    between atoms: _177  and  _178
REMARK   78  A    between atoms: _178  and  _179
REMARK   79  A    between atoms: _179  and  _180
REMARK   80  A    between atoms: _180  and  _181
REMARK   81  A    between atoms: _185  and  _187
REMARK   82  A    between atoms: _187  and  _188
REMARK   83  A    between atoms: _187  and  _190
REMARK   84  A    between atoms: _193  and  _195
REMARK   85  A    between atoms: _195  and  _196
REMARK   86  A    between atoms: _195  and  _198
REMARK   87  A    between atoms: _198  and  _199
REMARK   88  A    between atoms: _199  and  _200
REMARK   89  A    between atoms: _202  and  _204
REMARK   90  A    between atoms: _204  and  _205
REMARK   91  A    between atoms: _204  and  _207
REMARK   92  A    between atoms: _207  and  _208
REMARK   93  A    between atoms: _209  and  ZN_397
REMARK   94  A    between atoms: _213  and  _215
REMARK   95  A    between atoms: _215  and  _216
REMARK   96  A    between atoms: _218  and  _220
REMARK   97  A    between atoms: _220  and  _221
REMARK   98  A    between atoms: _220  and  _223
REMARK   99  A    between atoms: _223  and  _224
REMARK  100  A    between atoms: _226  and  _228
REMARK  101  A    between atoms: _228  and  _229
REMARK  102  A    between atoms: _228  and  _231
REMARK  103  A    between atoms: _231  and  _232
REMARK  104  A    between atoms: _234  and  _236
REMARK  105  A    between atoms: _236  and  _237
REMARK  106  A    between atoms: _236  and  _239
REMARK  107  A    between atoms: _239  and  _240
REMARK  108  A    between atoms: _242  and  _244
REMARK  109  A    between atoms: _244  and  _245
REMARK  110  A    between atoms: _244  and  _247
REMARK  111  A    between atoms: _250  and  _252
REMARK  112  A    between atoms: _252  and  _253
REMARK  113  A    between atoms: _252  and  _255
REMARK  114  A    between atoms: _258  and  _260
REMARK  115  A    between atoms: _260  and  _261
REMARK  116  A    between atoms: _263  and  _265
REMARK  117  A    between atoms: _265  and  _266
REMARK  118  A    between atoms: _265  and  _268
REMARK  119  A    between atoms: _271  and  _273
REMARK  120  A    between atoms: _273  and  _274
REMARK  121  A    between atoms: _273  and  _276
REMARK  122  A    between atoms: _276  and  _277
REMARK  123  A    between atoms: _277  and  _278
REMARK  124  A    between atoms: _278  and  _279
REMARK  125  A    between atoms: _279  and  _280
REMARK  126  A    between atoms: _284  and  _286
REMARK  127  A    between atoms: _286  and  _287
REMARK  128  A    between atoms: _286  and  _289
REMARK  129  A    between atoms: _289  and  _290
REMARK  130  A    between atoms: _293  and  _295
REMARK  131  A    between atoms: _295  and  _296
REMARK  132  A    between atoms: _295  and  _298
REMARK  133  A    between atoms: _298  and  _299
REMARK  134  A    between atoms: _304  and  _306
REMARK  135  A    between atoms: _306  and  _307
REMARK  136  A    between atoms: _306  and  _309
REMARK  137  A    between atoms: _312  and  _314
REMARK  138  A    between atoms: _314  and  _315
REMARK  139  A    between atoms: _314  and  _317
REMARK  140  A    between atoms: _317  and  _318
REMARK  141  A    between atoms: _321  and  _323
REMARK  142  A    between atoms: _323  and  _324
REMARK  143  A    between atoms: _323  and  _326
REMARK  144  A    between atoms: _326  and  _327
REMARK  145  A    between atoms: _329  and  _331
REMARK  146  A    between atoms: _331  and  _332
REMARK  147  A    between atoms: _331  and  _334
REMARK  148  A    between atoms: _334  and  _335
REMARK  149  A    between atoms: _338  and  _340
REMARK  150  A    between atoms: _340  and  _341
REMARK  151  A    between atoms: _340  and  _343
REMARK  152  A    between atoms: _343  and  _344
REMARK  153  A    between atoms: _346  and  _348
REMARK  154  A    between atoms: _348  and  _349
REMARK  155  A    between atoms: _348  and  _351
REMARK  156  A    between atoms: _351  and  _352
REMARK  157  A    between atoms: _352  and  _353
REMARK  158  A    between atoms: _353  and  _354
REMARK  159  A    between atoms: _363  and  _365
REMARK  160  A    between atoms: _365  and  _366
REMARK  161  A    between atoms: _365  and  _368
REMARK  162  A    between atoms: _368  and  _369
REMARK  163  A    between atoms: _369  and  _370
REMARK  164  A    between atoms: _372  and  _374
REMARK  165  A    between atoms: _374  and  _375
REMARK  166  A    between atoms: _374  and  _377
REMARK  167  A    between atoms: _377  and  _378
REMARK  168  A    between atoms: _378  and  _379
REMARK  169  A    between atoms: _379  and  _380
REMARK  170  A    between atoms: _380  and  _381
REMARK  171  A    between atoms: _385  and  _387
REMARK  172  A    between atoms: _387  and  _388
REMARK  173  A    between atoms: _387  and  _390
REMARK  174  A    between atoms: _390  and  _391
REMARK                            x       y       z     vdW  Elec       q    Type
REMARK                         _______ _______ _______ _____ _____    ______ ____
ROOT
ATOM      1  CA  SER A   1     -19.996   9.376  63.275  0.00  0.00    +0.163 C 
ENDROOT
BRANCH   1   2
ATOM      2  N   SER A   1     -20.385   8.292  62.380  0.00  0.00    -0.237 NA
ATOM      3  H   SER A   1     -21.380   7.996  62.326  0.00  0.00    +0.142 HD
ENDBRANCH   1   2
BRANCH   1   4
ATOM      4  C   SER A   1     -19.418   8.806  64.569  0.00  0.00    +0.227 C 
ATOM      5  O   SER A   1     -19.483   7.607  64.848  0.00  0.00    -0.287 OA
ENDBRANCH   1   4
BRANCH   1   6
ATOM      6  CB  SER A   1     -21.229  10.184  63.633  0.00  0.00    +0.162 C 
BRANCH   6   7
ATOM      7  OG  SER A   1     -22.196   9.363  64.269  0.00  0.00    -0.380 OA
ATOM      8  H   SER A   1     -22.992   9.907  64.495  0.00  0.00    +0.211 HD
ENDBRANCH   6   7
ENDBRANCH   1   6
TORSDOF 4
REMARK  Name = ../refined-set-2016/2isw/2isw_pocket.pdb
REMARK  174 active torsions:
REMARK  status: ('A' for Active; 'I' for Inactive)
REMARK    1  A    between atoms: _1  and  _3
REMARK    2  A    between atoms: _3  and  _4
REMARK    3  A    between atoms: _7  and  _9
REMARK    4  A    between atoms: _9  and  _10
REMARK    5  A    between atoms: _9  and  _12
REMARK    6  A    between atoms: _12  and  _13
REMARK    7  A    between atoms: _19  and  _21
REMARK    8  A    between atoms: _21  and  _22
REMARK    9  A    between atoms: _21  and  _24
REMARK   10  A    between atoms: _24  and  _25
REMARK   11  A    between atoms: _30  and  _32
REMARK   12  A    between atoms: _32  and  _33
REMARK   13  A    between atoms: _32  and  _35
REMARK   14  A    between atoms: _35  and  _36
REMARK   15  A    between atoms: _36  and  _37
REMARK   16  A    between atoms: _42  and  _44
REMARK   17  A    between atoms: _44  and  _45
REMARK   18  A    between atoms: _44  and  _47
REMARK   19  A    between atoms: _47  and  _48
REMARK   20  A    between atoms: _50  and  _52
REMARK   21  A    between atoms: _52  and  _53
REMARK   22  A    between atoms: _52  and  _55
REMARK   23  A    between atoms: _55  and  _56
REMARK   24  A    between atoms: _61  and  _63
REMARK   25  A    between atoms: _63  and  _64
REMARK   26  A    between atoms: _63  and  _66
REMARK   27  A    between atoms: _66  and  _67
REMARK   28  A    between atoms: _70  and  _72
REMARK   29  A    between atoms: _72  and  _73
REMARK   30  A    between atoms: _72  and  _75
REMARK   31  A    between atoms: _75  and  _76
REMARK   32  A    between atoms: _80  and  ZN_397
REMARK   33  A    between atoms: _81  and  _83
REMARK   34  A    between atoms: _83  and  _84
REMARK   35  A    between atoms: _83  and  _86
REMARK   36  A    between atoms: _86  and  _87
REMARK   37  A    between atoms: _87  and  _88
REMARK   38  A    between atoms: _90  and  _92
REMARK   39  A    between atoms: _92  and  _93
REMARK   40  A    between atoms: _92  and  _95
REMARK   41  A    between atoms: _95  and  _96
REMARK   42  A    between atoms: _96  and  _97
REMARK   43  A    between atoms: _100  and  _102
REMARK   44  A    between atoms: _102  and  _103
REMARK   45  A    between atoms: _102  and  _105
REMARK   46  A    between atoms: _105  and  _106
REMARK   47  A    between atoms: _106  and  _107
REMARK   48  A    between atoms: _110  and  _112
REMARK   49  A    between atoms: _112  and  _113
REMARK   50  A    between atoms: _112  and  _115
REMARK   51  A    between atoms: _115  and  _116
REMARK   52  A    between atoms: _119  and  _121
REMARK   53  A    between atoms: _121  and  _122
REMARK   54  A    between atoms: _121  and  _124
REMARK   55  A    between atoms: _124  and  _125
REMARK   56  A    between atoms: _128  and  _130
REMARK   57  A    between atoms: _130  and  _131
REMARK   58  A    between atoms: _130  and  _133
REMARK   59  A    between atoms: _133  and  _134
REMARK   60  A    between atoms: _136  and  _138
REMARK   61  A    between atoms: _138  and  _139
REMARK   62  A    between atoms: _138  and  _141
REMARK   63  A    between atoms: _141  and  _142
REMARK   64  A    between atoms: _146  and  ZN_397
REMARK   65  A    between atoms: _147  and  _149
REMARK   66  A    between atoms: _149  and  _150
REMARK   67  A    between atoms: _152  and  _154
REMARK   68  A    between atoms: _154  and  _155
REMARK   69  A    between atoms: _158  and  _160
REMARK   70  A    between atoms: _160  and  _161
REMARK   71  A    between atoms: _160  and  _163
REMARK   72  A    between atoms: _163  and  _164
REMARK   73  A    between atoms: _169  and  _170
REMARK   74  A    between atoms: _172  and  _174
REMARK   75  A    between atoms: _174  and  _175
REMARK   76  A    between atoms: _174  and  _177
REMARK   77  A    between atoms: _177  and  _178
REMARK   78  A    between atoms: _178  and  _179
REMARK   79  A    between atoms: _179  and  _180
REMARK   80  A    between atoms: _180  and  _181
REMARK   81  A    between atoms: _185  and  _187
REMARK   82  A    between atoms: _187  and  _188
REMARK   83  A    between atoms: _187  and  _190
REMARK   84  A    between atoms: _193  and  _195
REMARK   85  A    between atoms: _195  and  _196
REMARK   86  A    between atoms: _195  and  _198
REMARK   87  A    between atoms: _198  and  _199
REMARK   88  A    between atoms: _199  and  _200
REMARK   89  A    between atoms: _202  and  _204
REMARK   90  A    between atoms: _204  and  _205
REMARK   91  A    between atoms: _204  and  _207
REMARK   92  A    between atoms: _207  and  _208
REMARK   93  A    between atoms: _209  and  ZN_397
REMARK   94  A    between atoms: _213  and  _215
REMARK   95  A    between atoms: _215  and  _216
REMARK   96  A    between atoms: _218  and  _220
REMARK   97  A    between atoms: _220  and  _221
REMARK   98  A    between atoms: _220  and  _223
REMARK   99  A    between atoms: _223  and  _224
REMARK  100  A    between atoms: _226  and  _228
REMARK  101  A    between atoms: _228  and  _229
REMARK  102  A    between atoms: _228  and  _231
REMARK  103  A    between atoms: _231  and  _232
REMARK  104  A    between atoms: _234  and  _236
REMARK  105  A    between atoms: _236  and  _237
REMARK  106  A    between atoms: _236  and  _239
REMARK  107  A    between atoms: _239  and  _240
REMARK  108  A    between atoms: _242  and  _244
REMARK  109  A    between atoms: _244  and  _245
REMARK  110  A    between atoms: _244  and  _247
REMARK  111  A    between atoms: _250  and  _252
REMARK  112  A    between atoms: _252  and  _253
REMARK  113  A    between atoms: _252  and  _255
REMARK  114  A    between atoms: _258  and  _260
REMARK  115  A    between atoms: _260  and  _261
REMARK  116  A    between atoms: _263  and  _265
REMARK  117  A    between atoms: _265  and  _266
REMARK  118  A    between atoms: _265  and  _268
REMARK  119  A    between atoms: _271  and  _273
REMARK  120  A    between atoms: _273  and  _274
REMARK  121  A    between atoms: _273  and  _276
REMARK  122  A    between atoms: _276  and  _277
REMARK  123  A    between atoms: _277  and  _278
REMARK  124  A    between atoms: _278  and  _279
REMARK  125  A    between atoms: _279  and  _280
REMARK  126  A    between atoms: _284  and  _286
REMARK  127  A    between atoms: _286  and  _287
REMARK  128  A    between atoms: _286  and  _289
REMARK  129  A    between atoms: _289  and  _290
REMARK  130  A    between atoms: _293  and  _295
REMARK  131  A    between atoms: _295  and  _296
REMARK  132  A    between atoms: _295  and  _298
REMARK  133  A    between atoms: _298  and  _299
REMARK  134  A    between atoms: _304  and  _306
REMARK  135  A    between atoms: _306  and  _307
REMARK  136  A    between atoms: _306  and  _309
REMARK  137  A    between atoms: _312  and  _314
REMARK  138  A    between atoms: _314  and  _315
REMARK  139  A    between atoms: _314  and  _317
REMARK  140  A    between atoms: _317  and  _318
REMARK  141  A    between atoms: _321  and  _323
REMARK  142  A    between atoms: _323  and  _324
REMARK  143  A    between atoms: _323  and  _326
REMARK  144  A    between atoms: _326  and  _327
REMARK  145  A    between atoms: _329  and  _331
REMARK  146  A    between atoms: _331  and  _332
REMARK  147  A    between atoms: _331  and  _334
REMARK  148  A    between atoms: _334  and  _335
REMARK  149  A    between atoms: _338  and  _340
REMARK  150  A    between atoms: _340  and  _341
REMARK  151  A    between atoms: _340  and  _343
REMARK  152  A    between atoms: _343  and  _344
REMARK  153  A    between atoms: _346  and  _348
REMARK  154  A    between atoms: _348  and  _349
REMARK  155  A    between atoms: _348  and  _351
REMARK  156  A    between atoms: _351  and  _352
REMARK  157  A    between atoms: _352  and  _353
REMARK  158  A    between atoms: _353  and  _354
REMARK  159  A    between atoms: _363  and  _365
REMARK  160  A    between atoms: _365  and  _366
REMARK  161  A    between atoms: _365  and  _368
REMARK  162  A    between atoms: _368  and  _369
REMARK  163  A    between atoms: _369  and  _370
REMARK  164  A    between atoms: _372  and  _374
REMARK  165  A    between atoms: _374  and  _375
REMARK  166  A    between atoms: _374  and  _377
REMARK  167  A    between atoms: _377  and  _378
REMARK  168  A    between atoms: _378  and  _379
REMARK  169  A    between atoms: _379  and  _380
REMARK  170  A    between atoms: _380  and  _381
REMARK  171  A    between atoms: _385  and  _387
REMARK  172  A    between atoms: _387  and  _388
REMARK  173  A    between atoms: _387  and  _390
REMARK  174  A    between atoms: _390  and  _391
REMARK                            x       y       z     vdW  Elec       q    Type
REMARK                         _______ _______ _______ _____ _____    ______ ____
ROOT
ATOM      1  CB  HIS A   1     -15.909   8.265  55.355  0.00  0.00    +0.072 C 
ENDROOT
BRANCH   1   2
ATOM      2  CG  HIS A   1     -15.779   9.726  55.589  0.00  0.00    +0.082 A 
ATOM      3  CD2 HIS A   1     -16.699  10.657  55.959  0.00  0.00    +0.115 A 
ATOM      4  NE2 HIS A   1     -16.086  11.883  55.887  0.00  0.00    -0.221 NA
ATOM      5  CE1 HIS A   1     -14.831  11.713  55.512  0.00  0.00    +0.199 A 
ATOM      6  ND1 HIS A   1     -14.614  10.420  55.331  0.00  0.00    -0.227 NA
ENDBRANCH   1   2
BRANCH   1   7
ATOM      7  CA  HIS A   1     -15.314   7.358  56.458  0.00  0.00    +0.139 C 
BRANCH   7   8
ATOM      8  N   HIS A   1     -15.733   6.022  56.074  0.00  0.00    -0.239 NA
ATOM      9  H   HIS A   1     -16.744   5.787  56.130  0.00  0.00    +0.142 HD
ENDBRANCH   7   8
BRANCH   7  10
ATOM     10  C   HIS A   1     -15.813   7.787  57.802  0.00  0.00    +0.224 C 
ATOM     11  O   HIS A   1     -16.959   7.533  58.114  0.00  0.00    -0.287 OA
ENDBRANCH   7  10
ENDBRANCH   1   7
TORSDOF 4
REMARK  Name = ../refined-set-2016/2isw/2isw_pocket.pdb
REMARK  174 active torsions:
REMARK  status: ('A' for Active; 'I' for Inactive)
REMARK    1  A    between atoms: _1  and  _3
REMARK    2  A    between atoms: _3  and  _4
REMARK    3  A    between atoms: _7  and  _9
REMARK    4  A    between atoms: _9  and  _10
REMARK    5  A    between atoms: _9  and  _12
REMARK    6  A    between atoms: _12  and  _13
REMARK    7  A    between atoms: _19  and  _21
REMARK    8  A    between atoms: _21  and  _22
REMARK    9  A    between atoms: _21  and  _24
REMARK   10  A    between atoms: _24  and  _25
REMARK   11  A    between atoms: _30  and  _32
REMARK   12  A    between atoms: _32  and  _33
REMARK   13  A    between atoms: _32  and  _35
REMARK   14  A    between atoms: _35  and  _36
REMARK   15  A    between atoms: _36  and  _37
REMARK   16  A    between atoms: _42  and  _44
REMARK   17  A    between atoms: _44  and  _45
REMARK   18  A    between atoms: _44  and  _47
REMARK   19  A    between atoms: _47  and  _48
REMARK   20  A    between atoms: _50  and  _52
REMARK   21  A    between atoms: _52  and  _53
REMARK   22  A    between atoms: _52  and  _55
REMARK   23  A    between atoms: _55  and  _56
REMARK   24  A    between atoms: _61  and  _63
REMARK   25  A    between atoms: _63  and  _64
REMARK   26  A    between atoms: _63  and  _66
REMARK   27  A    between atoms: _66  and  _67
REMARK   28  A    between atoms: _70  and  _72
REMARK   29  A    between atoms: _72  and  _73
REMARK   30  A    between atoms: _72  and  _75
REMARK   31  A    between atoms: _75  and  _76
REMARK   32  A    between atoms: _80  and  ZN_397
REMARK   33  A    between atoms: _81  and  _83
REMARK   34  A    between atoms: _83  and  _84
REMARK   35  A    between atoms: _83  and  _86
REMARK   36  A    between atoms: _86  and  _87
REMARK   37  A    between atoms: _87  and  _88
REMARK   38  A    between atoms: _90  and  _92
REMARK   39  A    between atoms: _92  and  _93
REMARK   40  A    between atoms: _92  and  _95
REMARK   41  A    between atoms: _95  and  _96
REMARK   42  A    between atoms: _96  and  _97
REMARK   43  A    between atoms: _100  and  _102
REMARK   44  A    between atoms: _102  and  _103
REMARK   45  A    between atoms: _102  and  _105
REMARK   46  A    between atoms: _105  and  _106
REMARK   47  A    between atoms: _106  and  _107
REMARK   48  A    between atoms: _110  and  _112
REMARK   49  A    between atoms: _112  and  _113
REMARK   50  A    between atoms: _112  and  _115
REMARK   51  A    between atoms: _115  and  _116
REMARK   52  A    between atoms: _119  and  _121
REMARK   53  A    between atoms: _121  and  _122
REMARK   54  A    between atoms: _121  and  _124
REMARK   55  A    between atoms: _124  and  _125
REMARK   56  A    between atoms: _128  and  _130
REMARK   57  A    between atoms: _130  and  _131
REMARK   58  A    between atoms: _130  and  _133
REMARK   59  A    between atoms: _133  and  _134
REMARK   60  A    between atoms: _136  and  _138
REMARK   61  A    between atoms: _138  and  _139
REMARK   62  A    between atoms: _138  and  _141
REMARK   63  A    between atoms: _141  and  _142
REMARK   64  A    between atoms: _146  and  ZN_397
REMARK   65  A    between atoms: _147  and  _149
REMARK   66  A    between atoms: _149  and  _150
REMARK   67  A    between atoms: _152  and  _154
REMARK   68  A    between atoms: _154  and  _155
REMARK   69  A    between atoms: _158  and  _160
REMARK   70  A    between atoms: _160  and  _161
REMARK   71  A    between atoms: _160  and  _163
REMARK   72  A    between atoms: _163  and  _164
REMARK   73  A    between atoms: _169  and  _170
REMARK   74  A    between atoms: _172  and  _174
REMARK   75  A    between atoms: _174  and  _175
REMARK   76  A    between atoms: _174  and  _177
REMARK   77  A    between atoms: _177  and  _178
REMARK   78  A    between atoms: _178  and  _179
REMARK   79  A    between atoms: _179  and  _180
REMARK   80  A    between atoms: _180  and  _181
REMARK   81  A    between atoms: _185  and  _187
REMARK   82  A    between atoms: _187  and  _188
REMARK   83  A    between atoms: _187  and  _190
REMARK   84  A    between atoms: _193  and  _195
REMARK   85  A    between atoms: _195  and  _196
REMARK   86  A    between atoms: _195  and  _198
REMARK   87  A    between atoms: _198  and  _199
REMARK   88  A    between atoms: _199  and  _200
REMARK   89  A    between atoms: _202  and  _204
REMARK   90  A    between atoms: _204  and  _205
REMARK   91  A    between atoms: _204  and  _207
REMARK   92  A    between atoms: _207  and  _208
REMARK   93  A    between atoms: _209  and  ZN_397
REMARK   94  A    between atoms: _213  and  _215
REMARK   95  A    between atoms: _215  and  _216
REMARK   96  A    between atoms: _218  and  _220
REMARK   97  A    between atoms: _220  and  _221
REMARK   98  A    between atoms: _220  and  _223
REMARK   99  A    between atoms: _223  and  _224
REMARK  100  A    between atoms: _226  and  _228
REMARK  101  A    between atoms: _228  and  _229
REMARK  102  A    between atoms: _228  and  _231
REMARK  103  A    between atoms: _231  and  _232
REMARK  104  A    between atoms: _234  and  _236
REMARK  105  A    between atoms: _236  and  _237
REMARK  106  A    between atoms: _236  and  _239
REMARK  107  A    between atoms: _239  and  _240
REMARK  108  A    between atoms: _242  and  _244
REMARK  109  A    between atoms: _244  and  _245
REMARK  110  A    between atoms: _244  and  _247
REMARK  111  A    between atoms: _250  and  _252
REMARK  112  A    between atoms: _252  and  _253
REMARK  113  A    between atoms: _252  and  _255
REMARK  114  A    between atoms: _258  and  _260
REMARK  115  A    between atoms: _260  and  _261
REMARK  116  A    between atoms: _263  and  _265
REMARK  117  A    between atoms: _265  and  _266
REMARK  118  A    between atoms: _265  and  _268
REMARK  119  A    between atoms: _271  and  _273
REMARK  120  A    between atoms: _273  and  _274
REMARK  121  A    between atoms: _273  and  _276
REMARK  122  A    between atoms: _276  and  _277
REMARK  123  A    between atoms: _277  and  _278
REMARK  124  A    between atoms: _278  and  _279
REMARK  125  A    between atoms: _279  and  _280
REMARK  126  A    between atoms: _284  and  _286
REMARK  127  A    between atoms: _286  and  _287
REMARK  128  A    between atoms: _286  and  _289
REMARK  129  A    between atoms: _289  and  _290
REMARK  130  A    between atoms: _293  and  _295
REMARK  131  A    between atoms: _295  and  _296
REMARK  132  A    between atoms: _295  and  _298
REMARK  133  A    between atoms: _298  and  _299
REMARK  134  A    between atoms: _304  and  _306
REMARK  135  A    between atoms: _306  and  _307
REMARK  136  A    between atoms: _306  and  _309
REMARK  137  A    between atoms: _312  and  _314
REMARK  138  A    between atoms: _314  and  _315
REMARK  139  A    between atoms: _314  and  _317
REMARK  140  A    between atoms: _317  and  _318
REMARK  141  A    between atoms: _321  and  _323
REMARK  142  A    between atoms: _323  and  _324
REMARK  143  A    between atoms: _323  and  _326
REMARK  144  A    between atoms: _326  and  _327
REMARK  145  A    between atoms: _329  and  _331
REMARK  146  A    between atoms: _331  and  _332
REMARK  147  A    between atoms: _331  and  _334
REMARK  148  A    between atoms: _334  and  _335
REMARK  149  A    between atoms: _338  and  _340
REMARK  150  A    between atoms: _340  and  _341
REMARK  151  A    between atoms: _340  and  _343
REMARK  152  A    between atoms: _343  and  _344
REMARK  153  A    between atoms: _346  and  _348
REMARK  154  A    between atoms: _348  and  _349
REMARK  155  A    between atoms: _348  and  _351
REMARK  156  A    between atoms: _351  and  _352
REMARK  157  A    between atoms: _352  and  _353
REMARK  158  A    between atoms: _353  and  _354
REMARK  159  A    between atoms: _363  and  _365
REMARK  160  A    between atoms: _365  and  _366
REMARK  161  A    between atoms: _365  and  _368
REMARK  162  A    between atoms: _368  and  _369
REMARK  163  A    between atoms: _369  and  _370
REMARK  164  A    between atoms: _372  and  _374
REMARK  165  A    between atoms: _374  and  _375
REMARK  166  A    between atoms: _374  and  _377
REMARK  167  A    between atoms: _377  and  _378
REMARK  168  A    between atoms: _378  and  _379
REMARK  169  A    between atoms: _379  and  _380
REMARK  170  A    between atoms: _380  and  _381
REMARK  171  A    between atoms: _385  and  _387
REMARK  172  A    between atoms: _387  and  _388
REMARK  173  A    between atoms: _387  and  _390
REMARK  174  A    between atoms: _390  and  _391
REMARK                            x       y       z     vdW  Elec       q    Type
REMARK                         _______ _______ _______ _____ _____    ______ ____
ROOT
ATOM      1 ZN   UNK A   2     -22.390  16.737  58.670  0.00  0.00    +0.000 Zn
ENDROOT
BRANCH   1   2
ATOM      2  N   UNK A   2     -20.886  17.554  57.305  0.00  0.00    +0.000 N 
ATOM      3  C   UNK A   2     -19.685  17.014  57.204  0.00  0.00    +0.000 A 
ATOM      4  N   UNK A   2     -19.160  17.384  56.051  0.00  0.00    +0.000 NA
ATOM      5  C   UNK A   2     -20.062  18.193  55.391  0.00  0.00    +0.000 A 
ATOM      6  C   UNK A   2     -21.159  18.302  56.181  0.00  0.00    +0.000 A 
BRANCH   6   7
ATOM      7  C   UNK A   2     -22.472  18.999  55.972  0.00  0.00    +0.000 C 
BRANCH   7   8
ATOM      8  C   UNK A   2     -23.244  18.505  54.712  0.00  0.00    +0.000 C 
BRANCH   8   9
ATOM      9  C   UNK A   2     -24.708  18.929  54.810  0.00  0.00    +0.000 C 
ATOM     10  N   GLY A   4     -25.470  18.249  55.661  0.00  0.00    +0.000 N 
ATOM     11  H   GLY A   4     -25.059  17.453  56.189  0.00  0.00    +0.000 HD
ATOM     12  O   UNK A   2     -25.135  19.848  54.105  0.00  0.00    +0.000 OA
BRANCH  10  13
ATOM     13  CA  GLY A   4     -26.873  18.597  55.869  0.00  0.00    +0.000 C 
BRANCH  13  14
ATOM     14  C   GLY A   4     -27.675  18.635  54.586  0.00  0.00    +0.000 C 
ATOM     15  O   GLY A   4     -28.482  19.549  54.369  0.00  0.00    +0.000 OA
ATOM     16  N   SER A   5     -27.512  17.592  53.772  0.00  0.00    +0.000 N 
ATOM     17  H   SER A   5     -26.899  16.808  54.075  0.00  0.00    +0.000 HD
BRANCH  16  18
ATOM     18  CA  SER A   5     -28.167  17.514  52.467  0.00  0.00    +0.000 C 
BRANCH  18  19
ATOM     19  C   SER A   5     -29.312  16.554  52.247  0.00  0.00    +0.000 C 
ATOM     20  N   SER A   6     -29.944  16.052  53.316  0.00  0.00    +0.000 N 
ATOM     21  H   SER A   6     -29.610  16.270  54.277  0.00  0.00    +0.000 HD
ATOM     22  O   SER A   5     -29.577  16.189  51.099  0.00  0.00    +0.000 OA
BRANCH  20  23
ATOM     23  CA  SER A   6     -31.111  15.193  53.113  0.00  0.00    +0.000 C 
BRANCH  23  24
ATOM     24  C   SER A   6     -32.173  16.129  52.469  0.00  0.00    +0.000 C 
ATOM     25  O   SER A   6     -32.166  17.349  52.725  0.00  0.00    +0.000 OA
ATOM     26  N   SER A   7     -33.087  15.543  51.700  0.00  0.00    +0.000 N 
ATOM     27  H   SER A   7     -33.074  14.509  51.589  0.00  0.00    +0.000 HD
BRANCH  26  28
ATOM     28  CA  SER A   7     -34.104  16.322  51.012  0.00  0.00    +0.000 C 
BRANCH  28  29
ATOM     29  C   SER A   7     -35.474  16.289  51.665  0.00  0.00    +0.000 C 
ATOM     30  N   VAL A   8     -35.650  15.396  52.653  0.00  0.00    +0.000 N 
ATOM     31  H   VAL A   8     -34.834  14.826  52.953  0.00  0.00    +0.000 HD
ATOM     32  O   SER A   7     -36.351  17.083  51.280  0.00  0.00    +0.000 OA
BRANCH  30  33
ATOM     33  CA  VAL A   8     -36.938  15.182  53.334  0.00  0.00    +0.000 C 
BRANCH  33  34
ATOM     34  CB  VAL A   8     -37.307  16.378  54.254  0.00  0.00    +0.000 C 
ATOM     35  CG2 VAL A   8     -36.294  16.487  55.363  0.00  0.00    +0.000 C 
ATOM     36  CG1 VAL A   8     -38.683  16.193  54.857  0.00  0.00    +0.000 C 
ENDBRANCH  33  34
BRANCH  33  37
ATOM     37  C   VAL A   8     -37.993  15.026  52.234  0.00  0.00    +0.000 C 
ATOM     38  O   VAL A   8     -38.892  15.879  52.081  0.00  0.00    +0.000 OA
ENDBRANCH  33  37
ENDBRANCH  30  33
ENDBRANCH  28  29
BRANCH  28  39
ATOM     39  CB  SER A   7     -34.233  15.827  49.563  0.00  0.00    +0.000 C 
BRANCH  39  40
ATOM     40  OG  SER A   7     -33.035  16.036  48.821  0.00  0.00    +0.000 OA
ATOM     41  H   SER A   7     -32.825  17.003  48.801  0.00  0.00    +0.000 HD
ENDBRANCH  39  40
ENDBRANCH  28  39
ENDBRANCH  26  28
ENDBRANCH  23  24
BRANCH  23  42
ATOM     42  CB  SER A   6     -31.668  14.668  54.458  0.00  0.00    +0.000 C 
BRANCH  42  43
ATOM     43  OG  SER A   6     -30.781  13.707  55.024  0.00  0.00    +0.000 OA
ATOM     44  H   SER A   6     -29.899  14.127  55.183  0.00  0.00    +0.000 HD
ENDBRANCH  42  43
ENDBRANCH  23  42
ENDBRANCH  20  23
ENDBRANCH  18  19
BRANCH  18  45
ATOM     45  CB  SER A   5     -27.095  17.240  51.408  0.00  0.00    +0.000 C 
BRANCH  45  46
ATOM     46  OG  SER A   5     -26.180  18.324  51.388  0.00  0.00    +0.000 OA
ATOM     47  H   SER A   5     -25.756  18.413  52.278  0.00  0.00    +0.000 HD
ENDBRANCH  45  46
ENDBRANCH  18  45
ENDBRANCH  16  18
ENDBRANCH  13  14
ENDBRANCH  10  13
ENDBRANCH   8   9
BRANCH   8  48
ATOM     48  N   UNK A   2     -22.647  19.092  53.504  0.00  0.00    +0.000 N 
ATOM     49  H   UNK A   2     -22.136  19.992  53.605  0.00  0.00    +0.000 HD
ATOM     50  C   UNK A   2     -22.715  18.549  52.287  0.00  0.00    +0.000 C 
ATOM     51  O   UNK A   2     -23.243  17.446  52.011  0.00  0.00    +0.000 OA
BRANCH  50  52
ATOM     52  C   UNK A   2     -22.043  19.345  51.198  0.00  0.00    +0.000 C 
BRANCH  52  53
ATOM     53  N   UNK A   2     -20.876  18.610  50.757  0.00  0.00    +0.000 N 
ATOM     54  C   VAL A   1     -19.637  19.102  50.856  0.00  0.00    +0.000 C 
ATOM     55  O   VAL A   1     -19.383  20.201  51.352  0.00  0.00    +0.000 OA
ATOM     56  H   UNK A   2     -21.007  17.663  50.348  0.00  0.00    +0.000 HD
BRANCH  54  57
ATOM     57  CA  VAL A   1     -18.519  18.213  50.363  0.00  0.00    +0.000 C 
BRANCH  57  58
ATOM     58  CB  VAL A   1     -17.837  17.529  51.616  0.00  0.00    +0.000 C 
ATOM     59  CG2 VAL A   1     -18.793  16.520  52.244  0.00  0.00    +0.000 C 
ATOM     60  CG1 VAL A   1     -16.492  16.845  51.181  0.00  0.00    +0.000 C 
ENDBRANCH  57  58
BRANCH  57  61
ATOM     61  N   VAL A   1     -17.541  19.053  49.667  0.00  0.00    +0.000 NA
ATOM     62  H   VAL A   1     -17.104  19.841  50.186  0.00  0.00    +0.000 HD
ENDBRANCH  57  61
ENDBRANCH  54  57
ENDBRANCH  52  53
BRANCH  52  63
ATOM     63  C   UNK A   2     -22.991  19.479  50.024  0.00  0.00    +0.000 C 
BRANCH  63  64
ATOM     64  C   UNK A   2     -23.871  20.677  50.030  0.00  0.00    +0.000 C 
BRANCH  64  65
ATOM     65  S   UNK A   2     -24.600  20.742  48.346  0.00  0.00    +0.000 S 
ATOM     66  C   UNK A   2     -26.349  20.804  48.766  0.00  0.00    +0.000 C 
ENDBRANCH  64  65
ENDBRANCH  63  64
ENDBRANCH  52  63
ENDBRANCH  50  52
ENDBRANCH   8  48
ENDBRANCH   7   8
ENDBRANCH   6   7
ENDBRANCH   1   2
BRANCH   1  70
ATOM     67  C   UNK A   2     -19.565  16.022  61.723  0.00  0.00    +0.000 A 
ATOM     68  N   UNK A   2     -19.203  17.308  61.367  0.00  0.00    +0.000 NA
ATOM     69  C   UNK A   2     -20.002  17.743  60.409  0.00  0.00    +0.000 A 
ATOM     70  N   UNK A   2     -20.872  16.787  60.136  0.00  0.00    +0.000 N 
ATOM     71  C   UNK A   2     -20.628  15.704  60.948  0.00  0.00    +0.000 A 
BRANCH  67  72
ATOM     72  C   UNK A   2     -18.757  15.193  62.675  0.00  0.00    +0.000 C 
BRANCH  72  73
ATOM     73  C   UNK A   2     -17.395  14.794  62.099  0.00  0.00    +0.000 C 
BRANCH  73  76
ATOM     74  C   VAL A   1     -17.828  12.534  61.184  0.00  0.00    +0.000 C 
ATOM     75  O   VAL A   1     -17.908  12.012  62.298  0.00  0.00    +0.000 OA
ATOM     76  N   UNK A   2     -17.585  13.823  60.996  0.00  0.00    +0.000 N 
ATOM     77  H   UNK A   2     -17.524  14.173  60.019  0.00  0.00    +0.000 HD
BRANCH  74  78
ATOM     78  CA  VAL A   1     -17.997  11.676  59.932  0.00  0.00    +0.000 C 
BRANCH  78  79
ATOM     79  N   VAL A   1     -17.312  10.400  60.089  0.00  0.00    +0.000 NA
ATOM     80  H   VAL A   1     -17.827   9.582  60.473  0.00  0.00    +0.000 HD
ENDBRANCH  78  79
BRANCH  78  81
ATOM     81  CB  VAL A   1     -19.466  11.386  59.699  0.00  0.00    +0.000 C 
BRANCH  81  82
ATOM     82  CG  VAL A   1     -20.246  12.597  59.227  0.00  0.00    +0.000 C 
ATOM     83  OD2 VAL A   1     -21.492  12.557  59.351  0.00  0.00    +0.000 OA
ATOM     84  OD1 VAL A   1     -19.625  13.567  58.714  0.00  0.00    +0.000 OA
ENDBRANCH  81  82
ENDBRANCH  78  81
ENDBRANCH  74  78
ENDBRANCH  73  76
BRANCH  73  85
ATOM     85  C   UNK A   2     -16.441  14.404  63.229  0.00  0.00    +0.000 C 
ATOM     86  O   UNK A   2     -16.785  14.471  64.405  0.00  0.00    +0.000 OA
ENDBRANCH  73  85
ENDBRANCH  72  73
ENDBRANCH  67  72
ENDBRANCH   1  70
BRANCH   1  87
ATOM     87  N   UNK A   2     -24.000  17.950  59.724  0.00  0.00    +0.000 N 
ATOM     88  C   UNK A   2     -23.676  18.206  60.979  0.00  0.00    +0.000 A 
ATOM     89  N   UNK A   2     -24.779  18.496  61.644  0.00  0.00    +0.000 NA
ATOM     90  C   UNK A   2     -25.854  18.429  60.785  0.00  0.00    +0.000 A 
ATOM     91  C   UNK A   2     -25.357  18.079  59.576  0.00  0.00    +0.000 A 
BRANCH  90  92
ATOM     92  C   UNK A   2     -27.248  18.728  61.216  0.00  0.00    +0.000 C 
BRANCH  92  93
ATOM     93  C   UNK A   2     -28.139  19.205  60.076  0.00  0.00    +0.000 C 
BRANCH  93  94
ATOM     94  C   UNK A   2     -29.575  19.109  60.518  0.00  0.00    +0.000 C 
ATOM     95  O   UNK A   2     -30.101  20.036  61.127  0.00  0.00    +0.000 OA
ATOM     96  N   GLY A   4     -30.219  17.993  60.206  0.00  0.00    +0.000 N 
ATOM     97  H   GLY A   4     -29.751  17.251  59.647  0.00  0.00    +0.000 HD
BRANCH  96  98
ATOM     98  CA  GLY A   4     -31.596  17.822  60.659  0.00  0.00    +0.000 C 
BRANCH  98  99
ATOM     99  C   GLY A   4     -32.699  17.896  59.625  0.00  0.00    +0.000 C 
ATOM    100  N   SER A   5     -33.912  17.585  60.077  0.00  0.00    +0.000 N 
ATOM    101  H   SER A   5     -34.031  17.335  61.080  0.00  0.00    +0.000 HD
ATOM    102  O   GLY A   4     -32.473  18.241  58.446  0.00  0.00    +0.000 OA
BRANCH 100 103
ATOM    103  CA  SER A   5     -35.080  17.586  59.199  0.00  0.00    +0.000 C 
ATOM    104  CB  SER A   5     -36.005  16.408  59.581  0.00  0.00    +0.000 C 
BRANCH 103 105
ATOM    105  C   SER A   5     -35.899  18.889  59.122  0.00  0.00    +0.000 C 
ATOM    106  N   SER A   6     -35.400  19.969  59.725  0.00  0.00    +0.000 N 
ATOM    107  H   SER A   6     -34.485  19.902  60.214  0.00  0.00    +0.000 HD
ATOM    108  O   SER A   5     -36.970  18.908  58.498  0.00  0.00    +0.000 OA
BRANCH 106 109
ATOM    109  CA  SER A   6     -36.118  21.253  59.712  0.00  0.00    +0.000 C 
BRANCH 109 110
ATOM    110  C   SER A   6     -35.130  22.327  59.259  0.00  0.00    +0.000 C 
ATOM    111  O   SER A   6     -34.861  23.288  59.982  0.00  0.00    +0.000 OA
ATOM    112  N   SER A   7     -34.590  22.147  58.053  0.00  0.00    +0.000 N 
ATOM    113  H   SER A   7     -34.899  21.335  57.481  0.00  0.00    +0.000 HD
BRANCH 112 114
ATOM    114  CA  SER A   7     -33.577  23.052  57.506  0.00  0.00    +0.000 C 
BRANCH 114 115
ATOM    115  C   SER A   7     -34.076  24.430  57.090  0.00  0.00    +0.000 C 
ATOM    116  O   SER A   7     -33.291  25.393  57.098  0.00  0.00    +0.000 OA
ENDBRANCH 114 115
BRANCH 114 117
ATOM    117  CB  SER A   7     -32.873  22.405  56.310  0.00  0.00    +0.000 C 
BRANCH 117 118
ATOM    118  CG  SER A   7     -32.283  21.028  56.568  0.00  0.00    +0.000 C 
BRANCH 118 119
ATOM    119  CD  SER A   7     -31.590  20.537  55.287  0.00  0.00    +0.000 C 
BRANCH 119 120
ATOM    120  CE  SER A   7     -31.281  19.031  55.338  0.00  0.00    +0.000 C 
BRANCH 120 121
ATOM    121  NZ  SER A   7     -30.491  18.653  56.550  0.00  0.00    +0.000 N 
ATOM    122  HZ1 SER A   7     -31.030  18.900  57.405  0.00  0.00    +0.000 HD
ATOM    123  HZ2 SER A   7     -29.587  19.167  56.547  0.00  0.00    +0.000 HD
ATOM    124  HZ3 SER A   7     -30.309  17.629  56.538  0.00  0.00    +0.000 HD
ENDBRANCH 120 121
ENDBRANCH 119 120
ENDBRANCH 118 119
ENDBRANCH 117 118
ENDBRANCH 114 117
ENDBRANCH 112 114
ENDBRANCH 109 110
BRANCH 109 125
ATOM    125  CB  SER A   6     -36.629  21.515  61.129  0.00  0.00    +0.000 C 
BRANCH 125 126
ATOM    126  CG  SER A   6     -37.510  20.385  61.613  0.00  0.00    +0.000 A 
ATOM    127  CD2 SER A   6     -36.972  19.296  62.310  0.00  0.00    +0.000 A 
ATOM    128  CE2 SER A   6     -37.795  18.237  62.745  0.00  0.00    +0.000 A 
ATOM    129  CZ  SER A   6     -39.167  18.278  62.485  0.00  0.00    +0.000 A 
ATOM    130  CE1 SER A   6     -39.722  19.347  61.792  0.00  0.00    +0.000 A 
ATOM    131  CD1 SER A   6     -38.889  20.392  61.358  0.00  0.00    +0.000 A 
BRANCH 129 132
ATOM    132  OH  SER A   6     -39.991  17.277  62.952  0.00  0.00    +0.000 OA
ATOM    133  HH  SER A   6     -39.937  17.240  63.940  0.00  0.00    +0.000 HD
ENDBRANCH 129 132
ENDBRANCH 125 126
ENDBRANCH 109 125
ENDBRANCH 106 109
ENDBRANCH 103 105
ENDBRANCH 100 103
ENDBRANCH  98  99
ENDBRANCH  96  98
ENDBRANCH  93  94
BRANCH  93 134
ATOM    134  N   UNK A   2     -27.772  20.565  59.693  0.00  0.00    +0.000 N 
ATOM    135  H   UNK A   2     -27.185  21.132  60.337  0.00  0.00    +0.000 HD
ATOM    136  C   UNK A   2     -28.168  21.095  58.545  0.00  0.00    +0.000 C 
ATOM    137  O   UNK A   2     -28.862  20.489  57.718  0.00  0.00    +0.000 OA
BRANCH 136 138
ATOM    138  C   UNK A   2     -27.710  22.523  58.275  0.00  0.00    +0.000 C 
BRANCH 138 139
ATOM    139  N   UNK A   2     -27.903  22.758  56.859  0.00  0.00    +0.000 N 
ATOM    140  H   UNK A   2     -28.508  22.114  56.311  0.00  0.00    +0.000 HD
ATOM    141  C   VAL A   1     -27.317  23.788  56.246  0.00  0.00    +0.000 C 
ATOM    142  O   VAL A   1     -26.593  24.602  56.839  0.00  0.00    +0.000 OA
BRANCH 141 143
ATOM    143  CA  VAL A   1     -27.579  23.920  54.746  0.00  0.00    +0.000 C 
BRANCH 143 144
ATOM    144  N   VAL A   1     -26.932  25.139  54.273  0.00  0.00    +0.000 NA
ATOM    145  H   VAL A   1     -25.998  25.081  53.819  0.00  0.00    +0.000 HD
ENDBRANCH 143 144
BRANCH 143 146
ATOM    146  CB  VAL A   1     -27.019  22.656  54.034  0.00  0.00    +0.000 C 
ATOM    147  CG2 VAL A   1     -27.421  22.660  52.564  0.00  0.00    +0.000 C 
BRANCH 146 148
ATOM    148  OG1 VAL A   1     -25.581  22.617  54.141  0.00  0.00    +0.000 OA
ATOM    149  HG1 VAL A   1     -25.198  23.425  53.716  0.00  0.00    +0.000 HD
ENDBRANCH 146 148
ENDBRANCH 143 146
ENDBRANCH 141 143
ENDBRANCH 138 139
BRANCH 138 150
ATOM    150  C   UNK A   2     -28.538  23.529  59.103  0.00  0.00    +0.000 C 
BRANCH 150 151
ATOM    151  O   UNK A   2     -29.913  23.532  58.726  0.00  0.00    +0.000 OA
ATOM    152  H   UNK A   2     -30.404  24.189  59.280  0.00  0.00    +0.000 HD
ENDBRANCH 150 151
ENDBRANCH 138 150
ENDBRANCH 136 138
ENDBRANCH  93 134
ENDBRANCH  92  93
ENDBRANCH  90  92
ENDBRANCH   1  87
TORSDOF 68
REMARK  Name = ../refined-set-2016/2isw/2isw_pocket.pdb
REMARK  174 active torsions:
REMARK  status: ('A' for Active; 'I' for Inactive)
REMARK    1  A    between atoms: _1  and  _3
REMARK    2  A    between atoms: _3  and  _4
REMARK    3  A    between atoms: _7  and  _9
REMARK    4  A    between atoms: _9  and  _10
REMARK    5  A    between atoms: _9  and  _12
REMARK    6  A    between atoms: _12  and  _13
REMARK    7  A    between atoms: _19  and  _21
REMARK    8  A    between atoms: _21  and  _22
REMARK    9  A    between atoms: _21  and  _24
REMARK   10  A    between atoms: _24  and  _25
REMARK   11  A    between atoms: _30  and  _32
REMARK   12  A    between atoms: _32  and  _33
REMARK   13  A    between atoms: _32  and  _35
REMARK   14  A    between atoms: _35  and  _36
REMARK   15  A    between atoms: _36  and  _37
REMARK   16  A    between atoms: _42  and  _44
REMARK   17  A    between atoms: _44  and  _45
REMARK   18  A    between atoms: _44  and  _47
REMARK   19  A    between atoms: _47  and  _48
REMARK   20  A    between atoms: _50  and  _52
REMARK   21  A    between atoms: _52  and  _53
REMARK   22  A    between atoms: _52  and  _55
REMARK   23  A    between atoms: _55  and  _56
REMARK   24  A    between atoms: _61  and  _63
REMARK   25  A    between atoms: _63  and  _64
REMARK   26  A    between atoms: _63  and  _66
REMARK   27  A    between atoms: _66  and  _67
REMARK   28  A    between atoms: _70  and  _72
REMARK   29  A    between atoms: _72  and  _73
REMARK   30  A    between atoms: _72  and  _75
REMARK   31  A    between atoms: _75  and  _76
REMARK   32  A    between atoms: _80  and  ZN_397
REMARK   33  A    between atoms: _81  and  _83
REMARK   34  A    between atoms: _83  and  _84
REMARK   35  A    between atoms: _83  and  _86
REMARK   36  A    between atoms: _86  and  _87
REMARK   37  A    between atoms: _87  and  _88
REMARK   38  A    between atoms: _90  and  _92
REMARK   39  A    between atoms: _92  and  _93
REMARK   40  A    between atoms: _92  and  _95
REMARK   41  A    between atoms: _95  and  _96
REMARK   42  A    between atoms: _96  and  _97
REMARK   43  A    between atoms: _100  and  _102
REMARK   44  A    between atoms: _102  and  _103
REMARK   45  A    between atoms: _102  and  _105
REMARK   46  A    between atoms: _105  and  _106
REMARK   47  A    between atoms: _106  and  _107
REMARK   48  A    between atoms: _110  and  _112
REMARK   49  A    between atoms: _112  and  _113
REMARK   50  A    between atoms: _112  and  _115
REMARK   51  A    between atoms: _115  and  _116
REMARK   52  A    between atoms: _119  and  _121
REMARK   53  A    between atoms: _121  and  _122
REMARK   54  A    between atoms: _121  and  _124
REMARK   55  A    between atoms: _124  and  _125
REMARK   56  A    between atoms: _128  and  _130
REMARK   57  A    between atoms: _130  and  _131
REMARK   58  A    between atoms: _130  and  _133
REMARK   59  A    between atoms: _133  and  _134
REMARK   60  A    between atoms: _136  and  _138
REMARK   61  A    between atoms: _138  and  _139
REMARK   62  A    between atoms: _138  and  _141
REMARK   63  A    between atoms: _141  and  _142
REMARK   64  A    between atoms: _146  and  ZN_397
REMARK   65  A    between atoms: _147  and  _149
REMARK   66  A    between atoms: _149  and  _150
REMARK   67  A    between atoms: _152  and  _154
REMARK   68  A    between atoms: _154  and  _155
REMARK   69  A    between atoms: _158  and  _160
REMARK   70  A    between atoms: _160  and  _161
REMARK   71  A    between atoms: _160  and  _163
REMARK   72  A    between atoms: _163  and  _164
REMARK   73  A    between atoms: _169  and  _170
REMARK   74  A    between atoms: _172  and  _174
REMARK   75  A    between atoms: _174  and  _175
REMARK   76  A    between atoms: _174  and  _177
REMARK   77  A    between atoms: _177  and  _178
REMARK   78  A    between atoms: _178  and  _179
REMARK   79  A    between atoms: _179  and  _180
REMARK   80  A    between atoms: _180  and  _181
REMARK   81  A    between atoms: _185  and  _187
REMARK   82  A    between atoms: _187  and  _188
REMARK   83  A    between atoms: _187  and  _190
REMARK   84  A    between atoms: _193  and  _195
REMARK   85  A    between atoms: _195  and  _196
REMARK   86  A    between atoms: _195  and  _198
REMARK   87  A    between atoms: _198  and  _199
REMARK   88  A    between atoms: _199  and  _200
REMARK   89  A    between atoms: _202  and  _204
REMARK   90  A    between atoms: _204  and  _205
REMARK   91  A    between atoms: _204  and  _207
REMARK   92  A    between atoms: _207  and  _208
REMARK   93  A    between atoms: _209  and  ZN_397
REMARK   94  A    between atoms: _213  and  _215
REMARK   95  A    between atoms: _215  and  _216
REMARK   96  A    between atoms: _218  and  _220
REMARK   97  A    between atoms: _220  and  _221
REMARK   98  A    between atoms: _220  and  _223
REMARK   99  A    between atoms: _223  and  _224
REMARK  100  A    between atoms: _226  and  _228
REMARK  101  A    between atoms: _228  and  _229
REMARK  102  A    between atoms: _228  and  _231
REMARK  103  A    between atoms: _231  and  _232
REMARK  104  A    between atoms: _234  and  _236
REMARK  105  A    between atoms: _236  and  _237
REMARK  106  A    between atoms: _236  and  _239
REMARK  107  A    between atoms: _239  and  _240
REMARK  108  A    between atoms: _242  and  _244
REMARK  109  A    between atoms: _244  and  _245
REMARK  110  A    between atoms: _244  and  _247
REMARK  111  A    between atoms: _250  and  _252
REMARK  112  A    between atoms: _252  and  _253
REMARK  113  A    between atoms: _252  and  _255
REMARK  114  A    between atoms: _258  and  _260
REMARK  115  A    between atoms: _260  and  _261
REMARK  116  A    between atoms: _263  and  _265
REMARK  117  A    between atoms: _265  and  _266
REMARK  118  A    between atoms: _265  and  _268
REMARK  119  A    between atoms: _271  and  _273
REMARK  120  A    between atoms: _273  and  _274
REMARK  121  A    between atoms: _273  and  _276
REMARK  122  A    between atoms: _276  and  _277
REMARK  123  A    between atoms: _277  and  _278
REMARK  124  A    between atoms: _278  and  _279
REMARK  125  A    between atoms: _279  and  _280
REMARK  126  A    between atoms: _284  and  _286
REMARK  127  A    between atoms: _286  and  _287
REMARK  128  A    between atoms: _286  and  _289
REMARK  129  A    between atoms: _289  and  _290
REMARK  130  A    between atoms: _293  and  _295
REMARK  131  A    between atoms: _295  and  _296
REMARK  132  A    between atoms: _295  and  _298
REMARK  133  A    between atoms: _298  and  _299
REMARK  134  A    between atoms: _304  and  _306
REMARK  135  A    between atoms: _306  and  _307
REMARK  136  A    between atoms: _306  and  _309
REMARK  137  A    between atoms: _312  and  _314
REMARK  138  A    between atoms: _314  and  _315
REMARK  139  A    between atoms: _314  and  _317
REMARK  140  A    between atoms: _317  and  _318
REMARK  141  A    between atoms: _321  and  _323
REMARK  142  A    between atoms: _323  and  _324
REMARK  143  A    between atoms: _323  and  _326
REMARK  144  A    between atoms: _326  and  _327
REMARK  145  A    between atoms: _329  and  _331
REMARK  146  A    between atoms: _331  and  _332
REMARK  147  A    between atoms: _331  and  _334
REMARK  148  A    between atoms: _334  and  _335
REMARK  149  A    between atoms: _338  and  _340
REMARK  150  A    between atoms: _340  and  _341
REMARK  151  A    between atoms: _340  and  _343
REMARK  152  A    between atoms: _343  and  _344
REMARK  153  A    between atoms: _346  and  _348
REMARK  154  A    between atoms: _348  and  _349
REMARK  155  A    between atoms: _348  and  _351
REMARK  156  A    between atoms: _351  and  _352
REMARK  157  A    between atoms: _352  and  _353
REMARK  158  A    between atoms: _353  and  _354
REMARK  159  A    between atoms: _363  and  _365
REMARK  160  A    between atoms: _365  and  _366
REMARK  161  A    between atoms: _365  and  _368
REMARK  162  A    between atoms: _368  and  _369
REMARK  163  A    between atoms: _369  and  _370
REMARK  164  A    between atoms: _372  and  _374
REMARK  165  A    between atoms: _374  and  _375
REMARK  166  A    between atoms: _374  and  _377
REMARK  167  A    between atoms: _377  and  _378
REMARK  168  A    between atoms: _378  and  _379
REMARK  169  A    between atoms: _379  and  _380
REMARK  170  A    between atoms: _380  and  _381
REMARK  171  A    between atoms: _385  and  _387
REMARK  172  A    between atoms: _387  and  _388
REMARK  173  A    between atoms: _387  and  _390
REMARK  174  A    between atoms: _390  and  _391
REMARK                            x       y       z     vdW  Elec       q    Type
REMARK                         _______ _______ _______ _____ _____    ______ ____
ROOT
ATOM      1  CA  MET A   1     -13.243  14.070  58.498  0.00  0.00    +0.134 C 
ENDROOT
BRANCH   1   2
ATOM      2  N   MET A   1     -12.986  12.636  58.539  0.00  0.00    -0.239 NA
ATOM      3  H   MET A   1     -13.577  12.032  59.145  0.00  0.00    +0.142 HD
ENDBRANCH   1   2
BRANCH   1   4
ATOM      4  C   MET A   1     -12.800  14.680  59.835  0.00  0.00    +0.224 C 
ATOM      5  O   MET A   1     -13.198  14.192  60.896  0.00  0.00    -0.287 OA
ENDBRANCH   1   4
BRANCH   1   6
ATOM      6  CB  MET A   1     -14.720  14.402  58.252  0.00  0.00    +0.037 C 
BRANCH   6   7
ATOM      7  CG  MET A   1     -15.017  15.879  58.106  0.00  0.00    +0.059 C 
BRANCH   7   8
ATOM      8  SD  MET A   1     -16.556  16.410  58.872  0.00  0.00    -0.139 S 
ATOM      9  CE  MET A   1     -16.491  18.176  58.578  0.00  0.00    +0.069 C 
ENDBRANCH   7   8
ENDBRANCH   6   7
ENDBRANCH   1   6
TORSDOF 5
REMARK  Name = ../refined-set-2016/2isw/2isw_pocket.pdb
REMARK  174 active torsions:
REMARK  status: ('A' for Active; 'I' for Inactive)
REMARK    1  A    between atoms: _1  and  _3
REMARK    2  A    between atoms: _3  and  _4
REMARK    3  A    between atoms: _7  and  _9
REMARK    4  A    between atoms: _9  and  _10
REMARK    5  A    between atoms: _9  and  _12
REMARK    6  A    between atoms: _12  and  _13
REMARK    7  A    between atoms: _19  and  _21
REMARK    8  A    between atoms: _21  and  _22
REMARK    9  A    between atoms: _21  and  _24
REMARK   10  A    between atoms: _24  and  _25
REMARK   11  A    between atoms: _30  and  _32
REMARK   12  A    between atoms: _32  and  _33
REMARK   13  A    between atoms: _32  and  _35
REMARK   14  A    between atoms: _35  and  _36
REMARK   15  A    between atoms: _36  and  _37
REMARK   16  A    between atoms: _42  and  _44
REMARK   17  A    between atoms: _44  and  _45
REMARK   18  A    between atoms: _44  and  _47
REMARK   19  A    between atoms: _47  and  _48
REMARK   20  A    between atoms: _50  and  _52
REMARK   21  A    between atoms: _52  and  _53
REMARK   22  A    between atoms: _52  and  _55
REMARK   23  A    between atoms: _55  and  _56
REMARK   24  A    between atoms: _61  and  _63
REMARK   25  A    between atoms: _63  and  _64
REMARK   26  A    between atoms: _63  and  _66
REMARK   27  A    between atoms: _66  and  _67
REMARK   28  A    between atoms: _70  and  _72
REMARK   29  A    between atoms: _72  and  _73
REMARK   30  A    between atoms: _72  and  _75
REMARK   31  A    between atoms: _75  and  _76
REMARK   32  A    between atoms: _80  and  ZN_397
REMARK   33  A    between atoms: _81  and  _83
REMARK   34  A    between atoms: _83  and  _84
REMARK   35  A    between atoms: _83  and  _86
REMARK   36  A    between atoms: _86  and  _87
REMARK   37  A    between atoms: _87  and  _88
REMARK   38  A    between atoms: _90  and  _92
REMARK   39  A    between atoms: _92  and  _93
REMARK   40  A    between atoms: _92  and  _95
REMARK   41  A    between atoms: _95  and  _96
REMARK   42  A    between atoms: _96  and  _97
REMARK   43  A    between atoms: _100  and  _102
REMARK   44  A    between atoms: _102  and  _103
REMARK   45  A    between atoms: _102  and  _105
REMARK   46  A    between atoms: _105  and  _106
REMARK   47  A    between atoms: _106  and  _107
REMARK   48  A    between atoms: _110  and  _112
REMARK   49  A    between atoms: _112  and  _113
REMARK   50  A    between atoms: _112  and  _115
REMARK   51  A    between atoms: _115  and  _116
REMARK   52  A    between atoms: _119  and  _121
REMARK   53  A    between atoms: _121  and  _122
REMARK   54  A    between atoms: _121  and  _124
REMARK   55  A    between atoms: _124  and  _125
REMARK   56  A    between atoms: _128  and  _130
REMARK   57  A    between atoms: _130  and  _131
REMARK   58  A    between atoms: _130  and  _133
REMARK   59  A    between atoms: _133  and  _134
REMARK   60  A    between atoms: _136  and  _138
REMARK   61  A    between atoms: _138  and  _139
REMARK   62  A    between atoms: _138  and  _141
REMARK   63  A    between atoms: _141  and  _142
REMARK   64  A    between atoms: _146  and  ZN_397
REMARK   65  A    between atoms: _147  and  _149
REMARK   66  A    between atoms: _149  and  _150
REMARK   67  A    between atoms: _152  and  _154
REMARK   68  A    between atoms: _154  and  _155
REMARK   69  A    between atoms: _158  and  _160
REMARK   70  A    between atoms: _160  and  _161
REMARK   71  A    between atoms: _160  and  _163
REMARK   72  A    between atoms: _163  and  _164
REMARK   73  A    between atoms: _169  and  _170
REMARK   74  A    between atoms: _172  and  _174
REMARK   75  A    between atoms: _174  and  _175
REMARK   76  A    between atoms: _174  and  _177
REMARK   77  A    between atoms: _177  and  _178
REMARK   78  A    between atoms: _178  and  _179
REMARK   79  A    between atoms: _179  and  _180
REMARK   80  A    between atoms: _180  and  _181
REMARK   81  A    between atoms: _185  and  _187
REMARK   82  A    between atoms: _187  and  _188
REMARK   83  A    between atoms: _187  and  _190
REMARK   84  A    between atoms: _193  and  _195
REMARK   85  A    between atoms: _195  and  _196
REMARK   86  A    between atoms: _195  and  _198
REMARK   87  A    between atoms: _198  and  _199
REMARK   88  A    between atoms: _199  and  _200
REMARK   89  A    between atoms: _202  and  _204
REMARK   90  A    between atoms: _204  and  _205
REMARK   91  A    between atoms: _204  and  _207
REMARK   92  A    between atoms: _207  and  _208
REMARK   93  A    between atoms: _209  and  ZN_397
REMARK   94  A    between atoms: _213  and  _215
REMARK   95  A    between atoms: _215  and  _216
REMARK   96  A    between atoms: _218  and  _220
REMARK   97  A    between atoms: _220  and  _221
REMARK   98  A    between atoms: _220  and  _223
REMARK   99  A    between atoms: _223  and  _224
REMARK  100  A    between atoms: _226  and  _228
REMARK  101  A    between atoms: _228  and  _229
REMARK  102  A    between atoms: _228  and  _231
REMARK  103  A    between atoms: _231  and  _232
REMARK  104  A    between atoms: _234  and  _236
REMARK  105  A    between atoms: _236  and  _237
REMARK  106  A    between atoms: _236  and  _239
REMARK  107  A    between atoms: _239  and  _240
REMARK  108  A    between atoms: _242  and  _244
REMARK  109  A    between atoms: _244  and  _245
REMARK  110  A    between atoms: _244  and  _247
REMARK  111  A    between atoms: _250  and  _252
REMARK  112  A    between atoms: _252  and  _253
REMARK  113  A    between atoms: _252  and  _255
REMARK  114  A    between atoms: _258  and  _260
REMARK  115  A    between atoms: _260  and  _261
REMARK  116  A    between atoms: _263  and  _265
REMARK  117  A    between atoms: _265  and  _266
REMARK  118  A    between atoms: _265  and  _268
REMARK  119  A    between atoms: _271  and  _273
REMARK  120  A    between atoms: _273  and  _274
REMARK  121  A    between atoms: _273  and  _276
REMARK  122  A    between atoms: _276  and  _277
REMARK  123  A    between atoms: _277  and  _278
REMARK  124  A    between atoms: _278  and  _279
REMARK  125  A    between atoms: _279  and  _280
REMARK  126  A    between atoms: _284  and  _286
REMARK  127  A    between atoms: _286  and  _287
REMARK  128  A    between atoms: _286  and  _289
REMARK  129  A    between atoms: _289  and  _290
REMARK  130  A    between atoms: _293  and  _295
REMARK  131  A    between atoms: _295  and  _296
REMARK  132  A    between atoms: _295  and  _298
REMARK  133  A    between atoms: _298  and  _299
REMARK  134  A    between atoms: _304  and  _306
REMARK  135  A    between atoms: _306  and  _307
REMARK  136  A    between atoms: _306  and  _309
REMARK  137  A    between atoms: _312  and  _314
REMARK  138  A    between atoms: _314  and  _315
REMARK  139  A    between atoms: _314  and  _317
REMARK  140  A    between atoms: _317  and  _318
REMARK  141  A    between atoms: _321  and  _323
REMARK  142  A    between atoms: _323  and  _324
REMARK  143  A    between atoms: _323  and  _326
REMARK  144  A    between atoms: _326  and  _327
REMARK  145  A    between atoms: _329  and  _331
REMARK  146  A    between atoms: _331  and  _332
REMARK  147  A    between atoms: _331  and  _334
REMARK  148  A    between atoms: _334  and  _335
REMARK  149  A    between atoms: _338  and  _340
REMARK  150  A    between atoms: _340  and  _341
REMARK  151  A    between atoms: _340  and  _343
REMARK  152  A    between atoms: _343  and  _344
REMARK  153  A    between atoms: _346  and  _348
REMARK  154  A    between atoms: _348  and  _349
REMARK  155  A    between atoms: _348  and  _351
REMARK  156  A    between atoms: _351  and  _352
REMARK  157  A    between atoms: _352  and  _353
REMARK  158  A    between atoms: _353  and  _354
REMARK  159  A    between atoms: _363  and  _365
REMARK  160  A    between atoms: _365  and  _366
REMARK  161  A    between atoms: _365  and  _368
REMARK  162  A    between atoms: _368  and  _369
REMARK  163  A    between atoms: _369  and  _370
REMARK  164  A    between atoms: _372  and  _374
REMARK  165  A    between atoms: _374  and  _375
REMARK  166  A    between atoms: _374  and  _377
REMARK  167  A    between atoms: _377  and  _378
REMARK  168  A    between atoms: _378  and  _379
REMARK  169  A    between atoms: _379  and  _380
REMARK  170  A    between atoms: _380  and  _381
REMARK  171  A    between atoms: _385  and  _387
REMARK  172  A    between atoms: _387  and  _388
REMARK  173  A    between atoms: _387  and  _390
REMARK  174  A    between atoms: _390  and  _391
REMARK                            x       y       z     vdW  Elec       q    Type
REMARK                         _______ _______ _______ _____ _____    ______ ____
ROOT
ATOM      1  CA  GLU A   1     -11.965  15.868  54.750  0.00  0.00    +0.134 C 
ENDROOT
BRANCH   1   2
ATOM      2  N   GLU A   1     -10.979  14.824  55.054  0.00  0.00    -0.239 NA
ATOM      3  H   GLU A   1     -11.195  14.167  55.831  0.00  0.00    +0.142 HD
ENDBRANCH   1   2
BRANCH   1   4
ATOM      4  C   GLU A   1     -11.911  16.838  55.938  0.00  0.00    +0.224 C 
ATOM      5  O   GLU A   1     -11.828  16.386  57.084  0.00  0.00    -0.287 OA
ENDBRANCH   1   4
BRANCH   1   6
ATOM      6  CB  GLU A   1     -13.384  15.275  54.727  0.00  0.00    +0.037 C 
BRANCH   6   7
ATOM      7  CG  GLU A   1     -14.485  16.317  54.407  0.00  0.00    +0.116 C 
BRANCH   7   8
ATOM      8  CD  GLU A   1     -15.920  15.742  54.605  0.00  0.00    +0.365 C 
ATOM      9  OE2 GLU A   1     -16.802  16.435  55.167  0.00  0.00    -0.246 OA
ATOM     10  OE1 GLU A   1     -16.189  14.609  54.158  0.00  0.00    -0.246 OA
ENDBRANCH   7   8
ENDBRANCH   6   7
ENDBRANCH   1   6
TORSDOF 5
REMARK  Name = ../refined-set-2016/2isw/2isw_pocket.pdb
REMARK  174 active torsions:
REMARK  status: ('A' for Active; 'I' for Inactive)
REMARK    1  A    between atoms: _1  and  _3
REMARK    2  A    between atoms: _3  and  _4
REMARK    3  A    between atoms: _7  and  _9
REMARK    4  A    between atoms: _9  and  _10
REMARK    5  A    between atoms: _9  and  _12
REMARK    6  A    between atoms: _12  and  _13
REMARK    7  A    between atoms: _19  and  _21
REMARK    8  A    between atoms: _21  and  _22
REMARK    9  A    between atoms: _21  and  _24
REMARK   10  A    between atoms: _24  and  _25
REMARK   11  A    between atoms: _30  and  _32
REMARK   12  A    between atoms: _32  and  _33
REMARK   13  A    between atoms: _32  and  _35
REMARK   14  A    between atoms: _35  and  _36
REMARK   15  A    between atoms: _36  and  _37
REMARK   16  A    between atoms: _42  and  _44
REMARK   17  A    between atoms: _44  and  _45
REMARK   18  A    between atoms: _44  and  _47
REMARK   19  A    between atoms: _47  and  _48
REMARK   20  A    between atoms: _50  and  _52
REMARK   21  A    between atoms: _52  and  _53
REMARK   22  A    between atoms: _52  and  _55
REMARK   23  A    between atoms: _55  and  _56
REMARK   24  A    between atoms: _61  and  _63
REMARK   25  A    between atoms: _63  and  _64
REMARK   26  A    between atoms: _63  and  _66
REMARK   27  A    between atoms: _66  and  _67
REMARK   28  A    between atoms: _70  and  _72
REMARK   29  A    between atoms: _72  and  _73
REMARK   30  A    between atoms: _72  and  _75
REMARK   31  A    between atoms: _75  and  _76
REMARK   32  A    between atoms: _80  and  ZN_397
REMARK   33  A    between atoms: _81  and  _83
REMARK   34  A    between atoms: _83  and  _84
REMARK   35  A    between atoms: _83  and  _86
REMARK   36  A    between atoms: _86  and  _87
REMARK   37  A    between atoms: _87  and  _88
REMARK   38  A    between atoms: _90  and  _92
REMARK   39  A    between atoms: _92  and  _93
REMARK   40  A    between atoms: _92  and  _95
REMARK   41  A    between atoms: _95  and  _96
REMARK   42  A    between atoms: _96  and  _97
REMARK   43  A    between atoms: _100  and  _102
REMARK   44  A    between atoms: _102  and  _103
REMARK   45  A    between atoms: _102  and  _105
REMARK   46  A    between atoms: _105  and  _106
REMARK   47  A    between atoms: _106  and  _107
REMARK   48  A    between atoms: _110  and  _112
REMARK   49  A    between atoms: _112  and  _113
REMARK   50  A    between atoms: _112  and  _115
REMARK   51  A    between atoms: _115  and  _116
REMARK   52  A    between atoms: _119  and  _121
REMARK   53  A    between atoms: _121  and  _122
REMARK   54  A    between atoms: _121  and  _124
REMARK   55  A    between atoms: _124  and  _125
REMARK   56  A    between atoms: _128  and  _130
REMARK   57  A    between atoms: _130  and  _131
REMARK   58  A    between atoms: _130  and  _133
REMARK   59  A    between atoms: _133  and  _134
REMARK   60  A    between atoms: _136  and  _138
REMARK   61  A    between atoms: _138  and  _139
REMARK   62  A    between atoms: _138  and  _141
REMARK   63  A    between atoms: _141  and  _142
REMARK   64  A    between atoms: _146  and  ZN_397
REMARK   65  A    between atoms: _147  and  _149
REMARK   66  A    between atoms: _149  and  _150
REMARK   67  A    between atoms: _152  and  _154
REMARK   68  A    between atoms: _154  and  _155
REMARK   69  A    between atoms: _158  and  _160
REMARK   70  A    between atoms: _160  and  _161
REMARK   71  A    between atoms: _160  and  _163
REMARK   72  A    between atoms: _163  and  _164
REMARK   73  A    between atoms: _169  and  _170
REMARK   74  A    between atoms: _172  and  _174
REMARK   75  A    between atoms: _174  and  _175
REMARK   76  A    between atoms: _174  and  _177
REMARK   77  A    between atoms: _177  and  _178
REMARK   78  A    between atoms: _178  and  _179
REMARK   79  A    between atoms: _179  and  _180
REMARK   80  A    between atoms: _180  and  _181
REMARK   81  A    between atoms: _185  and  _187
REMARK   82  A    between atoms: _187  and  _188
REMARK   83  A    between atoms: _187  and  _190
REMARK   84  A    between atoms: _193  and  _195
REMARK   85  A    between atoms: _195  and  _196
REMARK   86  A    between atoms: _195  and  _198
REMARK   87  A    between atoms: _198  and  _199
REMARK   88  A    between atoms: _199  and  _200
REMARK   89  A    between atoms: _202  and  _204
REMARK   90  A    between atoms: _204  and  _205
REMARK   91  A    between atoms: _204  and  _207
REMARK   92  A    between atoms: _207  and  _208
REMARK   93  A    between atoms: _209  and  ZN_397
REMARK   94  A    between atoms: _213  and  _215
REMARK   95  A    between atoms: _215  and  _216
REMARK   96  A    between atoms: _218  and  _220
REMARK   97  A    between atoms: _220  and  _221
REMARK   98  A    between atoms: _220  and  _223
REMARK   99  A    between atoms: _223  and  _224
REMARK  100  A    between atoms: _226  and  _228
REMARK  101  A    between atoms: _228  and  _229
REMARK  102  A    between atoms: _228  and  _231
REMARK  103  A    between atoms: _231  and  _232
REMARK  104  A    between atoms: _234  and  _236
REMARK  105  A    between atoms: _236  and  _237
REMARK  106  A    between atoms: _236  and  _239
REMARK  107  A    between atoms: _239  and  _240
REMARK  108  A    between atoms: _242  and  _244
REMARK  109  A    between atoms: _244  and  _245
REMARK  110  A    between atoms: _244  and  _247
REMARK  111  A    between atoms: _250  and  _252
REMARK  112  A    between atoms: _252  and  _253
REMARK  113  A    between atoms: _252  and  _255
REMARK  114  A    between atoms: _258  and  _260
REMARK  115  A    between atoms: _260  and  _261
REMARK  116  A    between atoms: _263  and  _265
REMARK  117  A    between atoms: _265  and  _266
REMARK  118  A    between atoms: _265  and  _268
REMARK  119  A    between atoms: _271  and  _273
REMARK  120  A    between atoms: _273  and  _274
REMARK  121  A    between atoms: _273  and  _276
REMARK  122  A    between atoms: _276  and  _277
REMARK  123  A    between atoms: _277  and  _278
REMARK  124  A    between atoms: _278  and  _279
REMARK  125  A    between atoms: _279  and  _280
REMARK  126  A    between atoms: _284  and  _286
REMARK  127  A    between atoms: _286  and  _287
REMARK  128  A    between atoms: _286  and  _289
REMARK  129  A    between atoms: _289  and  _290
REMARK  130  A    between atoms: _293  and  _295
REMARK  131  A    between atoms: _295  and  _296
REMARK  132  A    between atoms: _295  and  _298
REMARK  133  A    between atoms: _298  and  _299
REMARK  134  A    between atoms: _304  and  _306
REMARK  135  A    between atoms: _306  and  _307
REMARK  136  A    between atoms: _306  and  _309
REMARK  137  A    between atoms: _312  and  _314
REMARK  138  A    between atoms: _314  and  _315
REMARK  139  A    between atoms: _314  and  _317
REMARK  140  A    between atoms: _317  and  _318
REMARK  141  A    between atoms: _321  and  _323
REMARK  142  A    between atoms: _323  and  _324
REMARK  143  A    between atoms: _323  and  _326
REMARK  144  A    between atoms: _326  and  _327
REMARK  145  A    between atoms: _329  and  _331
REMARK  146  A    between atoms: _331  and  _332
REMARK  147  A    between atoms: _331  and  _334
REMARK  148  A    between atoms: _334  and  _335
REMARK  149  A    between atoms: _338  and  _340
REMARK  150  A    between atoms: _340  and  _341
REMARK  151  A    between atoms: _340  and  _343
REMARK  152  A    between atoms: _343  and  _344
REMARK  153  A    between atoms: _346  and  _348
REMARK  154  A    between atoms: _348  and  _349
REMARK  155  A    between atoms: _348  and  _351
REMARK  156  A    between atoms: _351  and  _352
REMARK  157  A    between atoms: _352  and  _353
REMARK  158  A    between atoms: _353  and  _354
REMARK  159  A    between atoms: _363  and  _365
REMARK  160  A    between atoms: _365  and  _366
REMARK  161  A    between atoms: _365  and  _368
REMARK  162  A    between atoms: _368  and  _369
REMARK  163  A    between atoms: _369  and  _370
REMARK  164  A    between atoms: _372  and  _374
REMARK  165  A    between atoms: _374  and  _375
REMARK  166  A    between atoms: _374  and  _377
REMARK  167  A    between atoms: _377  and  _378
REMARK  168  A    between atoms: _378  and  _379
REMARK  169  A    between atoms: _379  and  _380
REMARK  170  A    between atoms: _380  and  _381
REMARK  171  A    between atoms: _385  and  _387
REMARK  172  A    between atoms: _387  and  _388
REMARK  173  A    between atoms: _387  and  _390
REMARK  174  A    between atoms: _390  and  _391
REMARK                            x       y       z     vdW  Elec       q    Type
REMARK                         _______ _______ _______ _____ _____    ______ ____
ROOT
ATOM      1  CA  GLU A   1     -14.455  21.976  57.084  0.00  0.00    +0.134 C 
ENDROOT
BRANCH   1   2
ATOM      2  N   GLU A   1     -13.366  21.045  57.344  0.00  0.00    -0.239 NA
ATOM      3  H   GLU A   1     -12.827  21.103  58.232  0.00  0.00    +0.142 HD
ENDBRANCH   1   2
BRANCH   1   4
ATOM      4  C   GLU A   1     -14.060  23.413  57.364  0.00  0.00    +0.224 C 
ATOM      5  O   GLU A   1     -13.430  23.695  58.366  0.00  0.00    -0.287 OA
ENDBRANCH   1   4
BRANCH   1   6
ATOM      6  CB  GLU A   1     -15.677  21.690  57.980  0.00  0.00    +0.037 C 
BRANCH   6   7
ATOM      7  CG  GLU A   1     -16.897  22.540  57.589  0.00  0.00    +0.116 C 
BRANCH   7   8
ATOM      8  CD  GLU A   1     -18.099  22.242  58.450  0.00  0.00    +0.365 C 
ATOM      9  OE2 GLU A   1     -18.758  23.202  58.893  0.00  0.00    -0.246 OA
ATOM     10  OE1 GLU A   1     -18.390  21.049  58.680  0.00  0.00    -0.246 OA
ENDBRANCH   7   8
ENDBRANCH   6   7
ENDBRANCH   1   6
TORSDOF 5
REMARK  Name = ../refined-set-2016/2isw/2isw_pocket.pdb
REMARK  174 active torsions:
REMARK  status: ('A' for Active; 'I' for Inactive)
REMARK    1  A    between atoms: _1  and  _3
REMARK    2  A    between atoms: _3  and  _4
REMARK    3  A    between atoms: _7  and  _9
REMARK    4  A    between atoms: _9  and  _10
REMARK    5  A    between atoms: _9  and  _12
REMARK    6  A    between atoms: _12  and  _13
REMARK    7  A    between atoms: _19  and  _21
REMARK    8  A    between atoms: _21  and  _22
REMARK    9  A    between atoms: _21  and  _24
REMARK   10  A    between atoms: _24  and  _25
REMARK   11  A    between atoms: _30  and  _32
REMARK   12  A    between atoms: _32  and  _33
REMARK   13  A    between atoms: _32  and  _35
REMARK   14  A    between atoms: _35  and  _36
REMARK   15  A    between atoms: _36  and  _37
REMARK   16  A    between atoms: _42  and  _44
REMARK   17  A    between atoms: _44  and  _45
REMARK   18  A    between atoms: _44  and  _47
REMARK   19  A    between atoms: _47  and  _48
REMARK   20  A    between atoms: _50  and  _52
REMARK   21  A    between atoms: _52  and  _53
REMARK   22  A    between atoms: _52  and  _55
REMARK   23  A    between atoms: _55  and  _56
REMARK   24  A    between atoms: _61  and  _63
REMARK   25  A    between atoms: _63  and  _64
REMARK   26  A    between atoms: _63  and  _66
REMARK   27  A    between atoms: _66  and  _67
REMARK   28  A    between atoms: _70  and  _72
REMARK   29  A    between atoms: _72  and  _73
REMARK   30  A    between atoms: _72  and  _75
REMARK   31  A    between atoms: _75  and  _76
REMARK   32  A    between atoms: _80  and  ZN_397
REMARK   33  A    between atoms: _81  and  _83
REMARK   34  A    between atoms: _83  and  _84
REMARK   35  A    between atoms: _83  and  _86
REMARK   36  A    between atoms: _86  and  _87
REMARK   37  A    between atoms: _87  and  _88
REMARK   38  A    between atoms: _90  and  _92
REMARK   39  A    between atoms: _92  and  _93
REMARK   40  A    between atoms: _92  and  _95
REMARK   41  A    between atoms: _95  and  _96
REMARK   42  A    between atoms: _96  and  _97
REMARK   43  A    between atoms: _100  and  _102
REMARK   44  A    between atoms: _102  and  _103
REMARK   45  A    between atoms: _102  and  _105
REMARK   46  A    between atoms: _105  and  _106
REMARK   47  A    between atoms: _106  and  _107
REMARK   48  A    between atoms: _110  and  _112
REMARK   49  A    between atoms: _112  and  _113
REMARK   50  A    between atoms: _112  and  _115
REMARK   51  A    between atoms: _115  and  _116
REMARK   52  A    between atoms: _119  and  _121
REMARK   53  A    between atoms: _121  and  _122
REMARK   54  A    between atoms: _121  and  _124
REMARK   55  A    between atoms: _124  and  _125
REMARK   56  A    between atoms: _128  and  _130
REMARK   57  A    between atoms: _130  and  _131
REMARK   58  A    between atoms: _130  and  _133
REMARK   59  A    between atoms: _133  and  _134
REMARK   60  A    between atoms: _136  and  _138
REMARK   61  A    between atoms: _138  and  _139
REMARK   62  A    between atoms: _138  and  _141
REMARK   63  A    between atoms: _141  and  _142
REMARK   64  A    between atoms: _146  and  ZN_397
REMARK   65  A    between atoms: _147  and  _149
REMARK   66  A    between atoms: _149  and  _150
REMARK   67  A    between atoms: _152  and  _154
REMARK   68  A    between atoms: _154  and  _155
REMARK   69  A    between atoms: _158  and  _160
REMARK   70  A    between atoms: _160  and  _161
REMARK   71  A    between atoms: _160  and  _163
REMARK   72  A    between atoms: _163  and  _164
REMARK   73  A    between atoms: _169  and  _170
REMARK   74  A    between atoms: _172  and  _174
REMARK   75  A    between atoms: _174  and  _175
REMARK   76  A    between atoms: _174  and  _177
REMARK   77  A    between atoms: _177  and  _178
REMARK   78  A    between atoms: _178  and  _179
REMARK   79  A    between atoms: _179  and  _180
REMARK   80  A    between atoms: _180  and  _181
REMARK   81  A    between atoms: _185  and  _187
REMARK   82  A    between atoms: _187  and  _188
REMARK   83  A    between atoms: _187  and  _190
REMARK   84  A    between atoms: _193  and  _195
REMARK   85  A    between atoms: _195  and  _196
REMARK   86  A    between atoms: _195  and  _198
REMARK   87  A    between atoms: _198  and  _199
REMARK   88  A    between atoms: _199  and  _200
REMARK   89  A    between atoms: _202  and  _204
REMARK   90  A    between atoms: _204  and  _205
REMARK   91  A    between atoms: _204  and  _207
REMARK   92  A    between atoms: _207  and  _208
REMARK   93  A    between atoms: _209  and  ZN_397
REMARK   94  A    between atoms: _213  and  _215
REMARK   95  A    between atoms: _215  and  _216
REMARK   96  A    between atoms: _218  and  _220
REMARK   97  A    between atoms: _220  and  _221
REMARK   98  A    between atoms: _220  and  _223
REMARK   99  A    between atoms: _223  and  _224
REMARK  100  A    between atoms: _226  and  _228
REMARK  101  A    between atoms: _228  and  _229
REMARK  102  A    between atoms: _228  and  _231
REMARK  103  A    between atoms: _231  and  _232
REMARK  104  A    between atoms: _234  and  _236
REMARK  105  A    between atoms: _236  and  _237
REMARK  106  A    between atoms: _236  and  _239
REMARK  107  A    between atoms: _239  and  _240
REMARK  108  A    between atoms: _242  and  _244
REMARK  109  A    between atoms: _244  and  _245
REMARK  110  A    between atoms: _244  and  _247
REMARK  111  A    between atoms: _250  and  _252
REMARK  112  A    between atoms: _252  and  _253
REMARK  113  A    between atoms: _252  and  _255
REMARK  114  A    between atoms: _258  and  _260
REMARK  115  A    between atoms: _260  and  _261
REMARK  116  A    between atoms: _263  and  _265
REMARK  117  A    between atoms: _265  and  _266
REMARK  118  A    between atoms: _265  and  _268
REMARK  119  A    between atoms: _271  and  _273
REMARK  120  A    between atoms: _273  and  _274
REMARK  121  A    between atoms: _273  and  _276
REMARK  122  A    between atoms: _276  and  _277
REMARK  123  A    between atoms: _277  and  _278
REMARK  124  A    between atoms: _278  and  _279
REMARK  125  A    between atoms: _279  and  _280
REMARK  126  A    between atoms: _284  and  _286
REMARK  127  A    between atoms: _286  and  _287
REMARK  128  A    between atoms: _286  and  _289
REMARK  129  A    between atoms: _289  and  _290
REMARK  130  A    between atoms: _293  and  _295
REMARK  131  A    between atoms: _295  and  _296
REMARK  132  A    between atoms: _295  and  _298
REMARK  133  A    between atoms: _298  and  _299
REMARK  134  A    between atoms: _304  and  _306
REMARK  135  A    between atoms: _306  and  _307
REMARK  136  A    between atoms: _306  and  _309
REMARK  137  A    between atoms: _312  and  _314
REMARK  138  A    between atoms: _314  and  _315
REMARK  139  A    between atoms: _314  and  _317
REMARK  140  A    between atoms: _317  and  _318
REMARK  141  A    between atoms: _321  and  _323
REMARK  142  A    between atoms: _323  and  _324
REMARK  143  A    between atoms: _323  and  _326
REMARK  144  A    between atoms: _326  and  _327
REMARK  145  A    between atoms: _329  and  _331
REMARK  146  A    between atoms: _331  and  _332
REMARK  147  A    between atoms: _331  and  _334
REMARK  148  A    between atoms: _334  and  _335
REMARK  149  A    between atoms: _338  and  _340
REMARK  150  A    between atoms: _340  and  _341
REMARK  151  A    between atoms: _340  and  _343
REMARK  152  A    between atoms: _343  and  _344
REMARK  153  A    between atoms: _346  and  _348
REMARK  154  A    between atoms: _348  and  _349
REMARK  155  A    between atoms: _348  and  _351
REMARK  156  A    between atoms: _351  and  _352
REMARK  157  A    between atoms: _352  and  _353
REMARK  158  A    between atoms: _353  and  _354
REMARK  159  A    between atoms: _363  and  _365
REMARK  160  A    between atoms: _365  and  _366
REMARK  161  A    between atoms: _365  and  _368
REMARK  162  A    between atoms: _368  and  _369
REMARK  163  A    between atoms: _369  and  _370
REMARK  164  A    between atoms: _372  and  _374
REMARK  165  A    between atoms: _374  and  _375
REMARK  166  A    between atoms: _374  and  _377
REMARK  167  A    between atoms: _377  and  _378
REMARK  168  A    between atoms: _378  and  _379
REMARK  169  A    between atoms: _379  and  _380
REMARK  170  A    between atoms: _380  and  _381
REMARK  171  A    between atoms: _385  and  _387
REMARK  172  A    between atoms: _387  and  _388
REMARK  173  A    between atoms: _387  and  _390
REMARK  174  A    between atoms: _390  and  _391
REMARK                            x       y       z     vdW  Elec       q    Type
REMARK                         _______ _______ _______ _____ _____    ______ ____
ROOT
ATOM      1  CA  LEU A   1     -22.999  24.360  59.484  0.00  0.00    +0.133 C 
ENDROOT
BRANCH   1   2
ATOM      2  N   LEU A   1     -21.746  25.065  59.765  0.00  0.00    -0.239 NA
ATOM      3  H   LEU A   1     -21.026  24.525  60.286  0.00  0.00    +0.142 HD
ENDBRANCH   1   2
BRANCH   1   4
ATOM      4  C   LEU A   1     -22.840  23.299  58.396  0.00  0.00    +0.224 C 
ATOM      5  O   LEU A   1     -22.867  23.605  57.202  0.00  0.00    -0.287 OA
ENDBRANCH   1   4
BRANCH   1   6
ATOM      6  CB  LEU A   1     -24.114  25.338  59.113  0.00  0.00    +0.025 C 
BRANCH   6   7
ATOM      7  CG  LEU A   1     -24.445  26.274  60.262  0.00  0.00    +0.002 C 
ATOM      8  CD2 LEU A   1     -24.583  25.510  61.572  0.00  0.00    +0.000 C 
ATOM      9  CD1 LEU A   1     -25.714  26.972  59.921  0.00  0.00    +0.000 C 
ENDBRANCH   6   7
ENDBRANCH   1   6
TORSDOF 4
REMARK  Name = ../refined-set-2016/2isw/2isw_pocket.pdb
REMARK  174 active torsions:
REMARK  status: ('A' for Active; 'I' for Inactive)
REMARK    1  A    between atoms: _1  and  _3
REMARK    2  A    between atoms: _3  and  _4
REMARK    3  A    between atoms: _7  and  _9
REMARK    4  A    between atoms: _9  and  _10
REMARK    5  A    between atoms: _9  and  _12
REMARK    6  A    between atoms: _12  and  _13
REMARK    7  A    between atoms: _19  and  _21
REMARK    8  A    between atoms: _21  and  _22
REMARK    9  A    between atoms: _21  and  _24
REMARK   10  A    between atoms: _24  and  _25
REMARK   11  A    between atoms: _30  and  _32
REMARK   12  A    between atoms: _32  and  _33
REMARK   13  A    between atoms: _32  and  _35
REMARK   14  A    between atoms: _35  and  _36
REMARK   15  A    between atoms: _36  and  _37
REMARK   16  A    between atoms: _42  and  _44
REMARK   17  A    between atoms: _44  and  _45
REMARK   18  A    between atoms: _44  and  _47
REMARK   19  A    between atoms: _47  and  _48
REMARK   20  A    between atoms: _50  and  _52
REMARK   21  A    between atoms: _52  and  _53
REMARK   22  A    between atoms: _52  and  _55
REMARK   23  A    between atoms: _55  and  _56
REMARK   24  A    between atoms: _61  and  _63
REMARK   25  A    between atoms: _63  and  _64
REMARK   26  A    between atoms: _63  and  _66
REMARK   27  A    between atoms: _66  and  _67
REMARK   28  A    between atoms: _70  and  _72
REMARK   29  A    between atoms: _72  and  _73
REMARK   30  A    between atoms: _72  and  _75
REMARK   31  A    between atoms: _75  and  _76
REMARK   32  A    between atoms: _80  and  ZN_397
REMARK   33  A    between atoms: _81  and  _83
REMARK   34  A    between atoms: _83  and  _84
REMARK   35  A    between atoms: _83  and  _86
REMARK   36  A    between atoms: _86  and  _87
REMARK   37  A    between atoms: _87  and  _88
REMARK   38  A    between atoms: _90  and  _92
REMARK   39  A    between atoms: _92  and  _93
REMARK   40  A    between atoms: _92  and  _95
REMARK   41  A    between atoms: _95  and  _96
REMARK   42  A    between atoms: _96  and  _97
REMARK   43  A    between atoms: _100  and  _102
REMARK   44  A    between atoms: _102  and  _103
REMARK   45  A    between atoms: _102  and  _105
REMARK   46  A    between atoms: _105  and  _106
REMARK   47  A    between atoms: _106  and  _107
REMARK   48  A    between atoms: _110  and  _112
REMARK   49  A    between atoms: _112  and  _113
REMARK   50  A    between atoms: _112  and  _115
REMARK   51  A    between atoms: _115  and  _116
REMARK   52  A    between atoms: _119  and  _121
REMARK   53  A    between atoms: _121  and  _122
REMARK   54  A    between atoms: _121  and  _124
REMARK   55  A    between atoms: _124  and  _125
REMARK   56  A    between atoms: _128  and  _130
REMARK   57  A    between atoms: _130  and  _131
REMARK   58  A    between atoms: _130  and  _133
REMARK   59  A    between atoms: _133  and  _134
REMARK   60  A    between atoms: _136  and  _138
REMARK   61  A    between atoms: _138  and  _139
REMARK   62  A    between atoms: _138  and  _141
REMARK   63  A    between atoms: _141  and  _142
REMARK   64  A    between atoms: _146  and  ZN_397
REMARK   65  A    between atoms: _147  and  _149
REMARK   66  A    between atoms: _149  and  _150
REMARK   67  A    between atoms: _152  and  _154
REMARK   68  A    between atoms: _154  and  _155
REMARK   69  A    between atoms: _158  and  _160
REMARK   70  A    between atoms: _160  and  _161
REMARK   71  A    between atoms: _160  and  _163
REMARK   72  A    between atoms: _163  and  _164
REMARK   73  A    between atoms: _169  and  _170
REMARK   74  A    between atoms: _172  and  _174
REMARK   75  A    between atoms: _174  and  _175
REMARK   76  A    between atoms: _174  and  _177
REMARK   77  A    between atoms: _177  and  _178
REMARK   78  A    between atoms: _178  and  _179
REMARK   79  A    between atoms: _179  and  _180
REMARK   80  A    between atoms: _180  and  _181
REMARK   81  A    between atoms: _185  and  _187
REMARK   82  A    between atoms: _187  and  _188
REMARK   83  A    between atoms: _187  and  _190
REMARK   84  A    between atoms: _193  and  _195
REMARK   85  A    between atoms: _195  and  _196
REMARK   86  A    between atoms: _195  and  _198
REMARK   87  A    between atoms: _198  and  _199
REMARK   88  A    between atoms: _199  and  _200
REMARK   89  A    between atoms: _202  and  _204
REMARK   90  A    between atoms: _204  and  _205
REMARK   91  A    between atoms: _204  and  _207
REMARK   92  A    between atoms: _207  and  _208
REMARK   93  A    between atoms: _209  and  ZN_397
REMARK   94  A    between atoms: _213  and  _215
REMARK   95  A    between atoms: _215  and  _216
REMARK   96  A    between atoms: _218  and  _220
REMARK   97  A    between atoms: _220  and  _221
REMARK   98  A    between atoms: _220  and  _223
REMARK   99  A    between atoms: _223  and  _224
REMARK  100  A    between atoms: _226  and  _228
REMARK  101  A    between atoms: _228  and  _229
REMARK  102  A    between atoms: _228  and  _231
REMARK  103  A    between atoms: _231  and  _232
REMARK  104  A    between atoms: _234  and  _236
REMARK  105  A    between atoms: _236  and  _237
REMARK  106  A    between atoms: _236  and  _239
REMARK  107  A    between atoms: _239  and  _240
REMARK  108  A    between atoms: _242  and  _244
REMARK  109  A    between atoms: _244  and  _245
REMARK  110  A    between atoms: _244  and  _247
REMARK  111  A    between atoms: _250  and  _252
REMARK  112  A    between atoms: _252  and  _253
REMARK  113  A    between atoms: _252  and  _255
REMARK  114  A    between atoms: _258  and  _260
REMARK  115  A    between atoms: _260  and  _261
REMARK  116  A    between atoms: _263  and  _265
REMARK  117  A    between atoms: _265  and  _266
REMARK  118  A    between atoms: _265  and  _268
REMARK  119  A    between atoms: _271  and  _273
REMARK  120  A    between atoms: _273  and  _274
REMARK  121  A    between atoms: _273  and  _276
REMARK  122  A    between atoms: _276  and  _277
REMARK  123  A    between atoms: _277  and  _278
REMARK  124  A    between atoms: _278  and  _279
REMARK  125  A    between atoms: _279  and  _280
REMARK  126  A    between atoms: _284  and  _286
REMARK  127  A    between atoms: _286  and  _287
REMARK  128  A    between atoms: _286  and  _289
REMARK  129  A    between atoms: _289  and  _290
REMARK  130  A    between atoms: _293  and  _295
REMARK  131  A    between atoms: _295  and  _296
REMARK  132  A    between atoms: _295  and  _298
REMARK  133  A    between atoms: _298  and  _299
REMARK  134  A    between atoms: _304  and  _306
REMARK  135  A    between atoms: _306  and  _307
REMARK  136  A    between atoms: _306  and  _309
REMARK  137  A    between atoms: _312  and  _314
REMARK  138  A    between atoms: _314  and  _315
REMARK  139  A    between atoms: _314  and  _317
REMARK  140  A    between atoms: _317  and  _318
REMARK  141  A    between atoms: _321  and  _323
REMARK  142  A    between atoms: _323  and  _324
REMARK  143  A    between atoms: _323  and  _326
REMARK  144  A    between atoms: _326  and  _327
REMARK  145  A    between atoms: _329  and  _331
REMARK  146  A    between atoms: _331  and  _332
REMARK  147  A    between atoms: _331  and  _334
REMARK  148  A    between atoms: _334  and  _335
REMARK  149  A    between atoms: _338  and  _340
REMARK  150  A    between atoms: _340  and  _341
REMARK  151  A    between atoms: _340  and  _343
REMARK  152  A    between atoms: _343  and  _344
REMARK  153  A    between atoms: _346  and  _348
REMARK  154  A    between atoms: _348  and  _349
REMARK  155  A    between atoms: _348  and  _351
REMARK  156  A    between atoms: _351  and  _352
REMARK  157  A    between atoms: _352  and  _353
REMARK  158  A    between atoms: _353  and  _354
REMARK  159  A    between atoms: _363  and  _365
REMARK  160  A    between atoms: _365  and  _366
REMARK  161  A    between atoms: _365  and  _368
REMARK  162  A    between atoms: _368  and  _369
REMARK  163  A    between atoms: _369  and  _370
REMARK  164  A    between atoms: _372  and  _374
REMARK  165  A    between atoms: _374  and  _375
REMARK  166  A    between atoms: _374  and  _377
REMARK  167  A    between atoms: _377  and  _378
REMARK  168  A    between atoms: _378  and  _379
REMARK  169  A    between atoms: _379  and  _380
REMARK  170  A    between atoms: _380  and  _381
REMARK  171  A    between atoms: _385  and  _387
REMARK  172  A    between atoms: _387  and  _388
REMARK  173  A    between atoms: _387  and  _390
REMARK  174  A    between atoms: _390  and  _391
REMARK                            x       y       z     vdW  Elec       q    Type
REMARK                         _______ _______ _______ _____ _____    ______ ____
ROOT
ATOM      1  CA  GLY A   2     -35.052  19.372  53.358  0.00  0.00    +0.176 C 
ENDROOT
BRANCH   1   4
ATOM      2  C   VAL A   1     -36.720  20.276  54.916  0.00  0.00    +0.238 C 
ATOM      3  O   VAL A   1     -35.860  20.576  55.750  0.00  0.00    -0.274 OA
ATOM      4  N   GLY A   2     -36.435  19.690  53.743  0.00  0.00    -0.296 N 
ATOM      5  H   GLY A   2     -37.210  19.455  53.091  0.00  0.00    +0.150 HD
BRANCH   2   6
ATOM      6  CA  VAL A   1     -38.196  20.560  55.218  0.00  0.00    +0.145 C 
BRANCH   6   7
ATOM      7  CB  VAL A   1     -38.444  22.099  55.154  0.00  0.00    +0.025 C 
ATOM      8  CG2 VAL A   1     -39.891  22.393  55.459  0.00  0.00    +0.002 C 
ATOM      9  CG1 VAL A   1     -38.097  22.623  53.779  0.00  0.00    +0.002 C 
ENDBRANCH   6   7
BRANCH   6  10
ATOM     10  N   VAL A   1     -38.541  20.028  56.548  0.00  0.00    -0.238 NA
ATOM     11  H   VAL A   1     -37.836  20.080  57.311  0.00  0.00    +0.142 HD
ENDBRANCH   6  10
ENDBRANCH   2   6
ENDBRANCH   1   4
BRANCH   1  12
ATOM     12  C   GLY A   2     -34.523  20.210  52.200  0.00  0.00    +0.243 C 
ATOM     13  O   GLY A   2     -35.178  21.171  51.793  0.00  0.00    -0.273 OA
ATOM     14  N   VAL A   3     -33.343  19.870  51.676  0.00  0.00    -0.298 N 
ATOM     15  H   VAL A   3     -32.825  19.067  52.086  0.00  0.00    +0.150 HD
BRANCH  14  16
ATOM     16  CA  VAL A   3     -32.746  20.598  50.530  0.00  0.00    +0.137 C 
BRANCH  16  17
ATOM     17  CB  VAL A   3     -31.199  20.379  50.450  0.00  0.00    +0.026 C 
ATOM     18  CG2 VAL A   3     -30.542  20.868  51.720  0.00  0.00    +0.002 C 
ATOM     19  CG1 VAL A   3     -30.590  21.108  49.205  0.00  0.00    +0.002 C 
ENDBRANCH  16  17
BRANCH  16  20
ATOM     20  C   VAL A   3     -33.359  20.055  49.228  0.00  0.00    +0.227 C 
ATOM     21  O   VAL A   3     -33.326  18.851  49.003  0.00  0.00    -0.286 OA
ENDBRANCH  16  20
ENDBRANCH  14  16
ENDBRANCH   1  12
TORSDOF 8
REMARK  Name = ../refined-set-2016/2isw/2isw_pocket.pdb
REMARK  174 active torsions:
REMARK  status: ('A' for Active; 'I' for Inactive)
REMARK    1  A    between atoms: _1  and  _3
REMARK    2  A    between atoms: _3  and  _4
REMARK    3  A    between atoms: _7  and  _9
REMARK    4  A    between atoms: _9  and  _10
REMARK    5  A    between atoms: _9  and  _12
REMARK    6  A    between atoms: _12  and  _13
REMARK    7  A    between atoms: _19  and  _21
REMARK    8  A    between atoms: _21  and  _22
REMARK    9  A    between atoms: _21  and  _24
REMARK   10  A    between atoms: _24  and  _25
REMARK   11  A    between atoms: _30  and  _32
REMARK   12  A    between atoms: _32  and  _33
REMARK   13  A    between atoms: _32  and  _35
REMARK   14  A    between atoms: _35  and  _36
REMARK   15  A    between atoms: _36  and  _37
REMARK   16  A    between atoms: _42  and  _44
REMARK   17  A    between atoms: _44  and  _45
REMARK   18  A    between atoms: _44  and  _47
REMARK   19  A    between atoms: _47  and  _48
REMARK   20  A    between atoms: _50  and  _52
REMARK   21  A    between atoms: _52  and  _53
REMARK   22  A    between atoms: _52  and  _55
REMARK   23  A    between atoms: _55  and  _56
REMARK   24  A    between atoms: _61  and  _63
REMARK   25  A    between atoms: _63  and  _64
REMARK   26  A    between atoms: _63  and  _66
REMARK   27  A    between atoms: _66  and  _67
REMARK   28  A    between atoms: _70  and  _72
REMARK   29  A    between atoms: _72  and  _73
REMARK   30  A    between atoms: _72  and  _75
REMARK   31  A    between atoms: _75  and  _76
REMARK   32  A    between atoms: _80  and  ZN_397
REMARK   33  A    between atoms: _81  and  _83
REMARK   34  A    between atoms: _83  and  _84
REMARK   35  A    between atoms: _83  and  _86
REMARK   36  A    between atoms: _86  and  _87
REMARK   37  A    between atoms: _87  and  _88
REMARK   38  A    between atoms: _90  and  _92
REMARK   39  A    between atoms: _92  and  _93
REMARK   40  A    between atoms: _92  and  _95
REMARK   41  A    between atoms: _95  and  _96
REMARK   42  A    between atoms: _96  and  _97
REMARK   43  A    between atoms: _100  and  _102
REMARK   44  A    between atoms: _102  and  _103
REMARK   45  A    between atoms: _102  and  _105
REMARK   46  A    between atoms: _105  and  _106
REMARK   47  A    between atoms: _106  and  _107
REMARK   48  A    between atoms: _110  and  _112
REMARK   49  A    between atoms: _112  and  _113
REMARK   50  A    between atoms: _112  and  _115
REMARK   51  A    between atoms: _115  and  _116
REMARK   52  A    between atoms: _119  and  _121
REMARK   53  A    between atoms: _121  and  _122
REMARK   54  A    between atoms: _121  and  _124
REMARK   55  A    between atoms: _124  and  _125
REMARK   56  A    between atoms: _128  and  _130
REMARK   57  A    between atoms: _130  and  _131
REMARK   58  A    between atoms: _130  and  _133
REMARK   59  A    between atoms: _133  and  _134
REMARK   60  A    between atoms: _136  and  _138
REMARK   61  A    between atoms: _138  and  _139
REMARK   62  A    between atoms: _138  and  _141
REMARK   63  A    between atoms: _141  and  _142
REMARK   64  A    between atoms: _146  and  ZN_397
REMARK   65  A    between atoms: _147  and  _149
REMARK   66  A    between atoms: _149  and  _150
REMARK   67  A    between atoms: _152  and  _154
REMARK   68  A    between atoms: _154  and  _155
REMARK   69  A    between atoms: _158  and  _160
REMARK   70  A    between atoms: _160  and  _161
REMARK   71  A    between atoms: _160  and  _163
REMARK   72  A    between atoms: _163  and  _164
REMARK   73  A    between atoms: _169  and  _170
REMARK   74  A    between atoms: _172  and  _174
REMARK   75  A    between atoms: _174  and  _175
REMARK   76  A    between atoms: _174  and  _177
REMARK   77  A    between atoms: _177  and  _178
REMARK   78  A    between atoms: _178  and  _179
REMARK   79  A    between atoms: _179  and  _180
REMARK   80  A    between atoms: _180  and  _181
REMARK   81  A    between atoms: _185  and  _187
REMARK   82  A    between atoms: _187  and  _188
REMARK   83  A    between atoms: _187  and  _190
REMARK   84  A    between atoms: _193  and  _195
REMARK   85  A    between atoms: _195  and  _196
REMARK   86  A    between atoms: _195  and  _198
REMARK   87  A    between atoms: _198  and  _199
REMARK   88  A    between atoms: _199  and  _200
REMARK   89  A    between atoms: _202  and  _204
REMARK   90  A    between atoms: _204  and  _205
REMARK   91  A    between atoms: _204  and  _207
REMARK   92  A    between atoms: _207  and  _208
REMARK   93  A    between atoms: _209  and  ZN_397
REMARK   94  A    between atoms: _213  and  _215
REMARK   95  A    between atoms: _215  and  _216
REMARK   96  A    between atoms: _218  and  _220
REMARK   97  A    between atoms: _220  and  _221
REMARK   98  A    between atoms: _220  and  _223
REMARK   99  A    between atoms: _223  and  _224
REMARK  100  A    between atoms: _226  and  _228
REMARK  101  A    between atoms: _228  and  _229
REMARK  102  A    between atoms: _228  and  _231
REMARK  103  A    between atoms: _231  and  _232
REMARK  104  A    between atoms: _234  and  _236
REMARK  105  A    between atoms: _236  and  _237
REMARK  106  A    between atoms: _236  and  _239
REMARK  107  A    between atoms: _239  and  _240
REMARK  108  A    between atoms: _242  and  _244
REMARK  109  A    between atoms: _244  and  _245
REMARK  110  A    between atoms: _244  and  _247
REMARK  111  A    between atoms: _250  and  _252
REMARK  112  A    between atoms: _252  and  _253
REMARK  113  A    between atoms: _252  and  _255
REMARK  114  A    between atoms: _258  and  _260
REMARK  115  A    between atoms: _260  and  _261
REMARK  116  A    between atoms: _263  and  _265
REMARK  117  A    between atoms: _265  and  _266
REMARK  118  A    between atoms: _265  and  _268
REMARK  119  A    between atoms: _271  and  _273
REMARK  120  A    between atoms: _273  and  _274
REMARK  121  A    between atoms: _273  and  _276
REMARK  122  A    between atoms: _276  and  _277
REMARK  123  A    between atoms: _277  and  _278
REMARK  124  A    between atoms: _278  and  _279
REMARK  125  A    between atoms: _279  and  _280
REMARK  126  A    between atoms: _284  and  _286
REMARK  127  A    between atoms: _286  and  _287
REMARK  128  A    between atoms: _286  and  _289
REMARK  129  A    between atoms: _289  and  _290
REMARK  130  A    between atoms: _293  and  _295
REMARK  131  A    between atoms: _295  and  _296
REMARK  132  A    between atoms: _295  and  _298
REMARK  133  A    between atoms: _298  and  _299
REMARK  134  A    between atoms: _304  and  _306
REMARK  135  A    between atoms: _306  and  _307
REMARK  136  A    between atoms: _306  and  _309
REMARK  137  A    between atoms: _312  and  _314
REMARK  138  A    between atoms: _314  and  _315
REMARK  139  A    between atoms: _314  and  _317
REMARK  140  A    between atoms: _317  and  _318
REMARK  141  A    between atoms: _321  and  _323
REMARK  142  A    between atoms: _323  and  _324
REMARK  143  A    between atoms: _323  and  _326
REMARK  144  A    between atoms: _326  and  _327
REMARK  145  A    between atoms: _329  and  _331
REMARK  146  A    between atoms: _331  and  _332
REMARK  147  A    between atoms: _331  and  _334
REMARK  148  A    between atoms: _334  and  _335
REMARK  149  A    between atoms: _338  and  _340
REMARK  150  A    between atoms: _340  and  _341
REMARK  151  A    between atoms: _340  and  _343
REMARK  152  A    between atoms: _343  and  _344
REMARK  153  A    between atoms: _346  and  _348
REMARK  154  A    between atoms: _348  and  _349
REMARK  155  A    between atoms: _348  and  _351
REMARK  156  A    between atoms: _351  and  _352
REMARK  157  A    between atoms: _352  and  _353
REMARK  158  A    between atoms: _353  and  _354
REMARK  159  A    between atoms: _363  and  _365
REMARK  160  A    between atoms: _365  and  _366
REMARK  161  A    between atoms: _365  and  _368
REMARK  162  A    between atoms: _368  and  _369
REMARK  163  A    between atoms: _369  and  _370
REMARK  164  A    between atoms: _372  and  _374
REMARK  165  A    between atoms: _374  and  _375
REMARK  166  A    between atoms: _374  and  _377
REMARK  167  A    between atoms: _377  and  _378
REMARK  168  A    between atoms: _378  and  _379
REMARK  169  A    between atoms: _379  and  _380
REMARK  170  A    between atoms: _380  and  _381
REMARK  171  A    between atoms: _385  and  _387
REMARK  172  A    between atoms: _387  and  _388
REMARK  173  A    between atoms: _387  and  _390
REMARK  174  A    between atoms: _390  and  _391
REMARK                            x       y       z     vdW  Elec       q    Type
REMARK                         _______ _______ _______ _____ _____    ______ ____
ROOT
ATOM      1  C   ASP A   5     -30.018  10.935  57.537  0.00  0.00    +0.241 C 
ATOM      2  N   SER A   6     -30.595  12.124  57.736  0.00  0.00    -0.295 N 
ATOM      3  H   SER A   6     -30.045  12.992  57.577  0.00  0.00    +0.150 HD
ATOM      4  O   ASP A   5     -30.662   9.869  57.626  0.00  0.00    -0.273 OA
ENDROOT
BRANCH   1   5
ATOM      5  CA  ASP A   5     -28.509  10.916  57.121  0.00  0.00    +0.160 C 
BRANCH   5   7
ATOM      6  C   VAL A   4     -27.528  11.177  54.926  0.00  0.00    +0.241 C 
ATOM      7  N   ASP A   5     -28.277  11.688  55.907  0.00  0.00    -0.297 N 
ATOM      8  H   ASP A   5     -28.694  12.635  55.805  0.00  0.00    +0.150 HD
ATOM      9  O   VAL A   4     -26.977  10.067  54.998  0.00  0.00    -0.273 OA
BRANCH   6  10
ATOM     10  CA  VAL A   4     -27.353  12.073  53.714  0.00  0.00    +0.149 C 
BRANCH  10  12
ATOM     11  C   ASN A   3     -25.457  13.576  53.298  0.00  0.00    +0.241 C 
ATOM     12  N   VAL A   4     -25.913  12.332  53.487  0.00  0.00    -0.297 N 
ATOM     13  H   VAL A   4     -25.245  11.535  53.474  0.00  0.00    +0.150 HD
ATOM     14  O   ASN A   3     -26.187  14.571  53.319  0.00  0.00    -0.273 OA
BRANCH  11  15
ATOM     15  CA  ASN A   3     -23.975  13.734  53.076  0.00  0.00    +0.158 C 
BRANCH  15  17
ATOM     16  C   ILE A   2     -23.714  13.849  50.678  0.00  0.00    +0.241 C 
ATOM     17  N   ASN A   3     -23.705  14.468  51.843  0.00  0.00    -0.297 N 
ATOM     18  H   ASN A   3     -23.504  15.488  51.884  0.00  0.00    +0.150 HD
ATOM     19  O   ILE A   2     -24.056  12.665  50.537  0.00  0.00    -0.273 OA
BRANCH  16  20
ATOM     20  CA  ILE A   2     -23.308  14.697  49.469  0.00  0.00    +0.148 C 
BRANCH  20  23
ATOM     21  C   LYS A   1     -21.002  14.877  48.785  0.00  0.00    +0.238 C 
ATOM     22  O   LYS A   1     -20.958  16.044  49.176  0.00  0.00    -0.274 OA
ATOM     23  N   ILE A   2     -22.082  14.124  48.917  0.00  0.00    -0.297 N 
ATOM     24  H   ILE A   2     -22.058  13.125  48.628  0.00  0.00    +0.150 HD
BRANCH  21  25
ATOM     25  CA  LYS A   1     -19.788  14.215  48.136  0.00  0.00    +0.145 C 
BRANCH  25  26
ATOM     26  N   LYS A   1     -19.358  15.142  47.061  0.00  0.00    -0.238 NA
ATOM     27  H   LYS A   1     -19.266  16.159  47.260  0.00  0.00    +0.142 HD
ENDBRANCH  25  26
BRANCH  25  28
ATOM     28  CB  LYS A   1     -18.672  14.055  49.141  0.00  0.00    +0.026 C 
BRANCH  28  29
ATOM     29  CG  LYS A   1     -19.053  13.237  50.390  0.00  0.00    -0.000 C 
BRANCH  29  30
ATOM     30  CD  LYS A   1     -17.792  13.074  51.246  0.00  0.00    -0.024 C 
BRANCH  30  31
ATOM     31  CE  LYS A   1     -18.023  12.246  52.552  0.00  0.00    -0.086 C 
BRANCH  31  32
ATOM     32  NZ  LYS A   1     -18.524  13.094  53.667  0.00  0.00    +0.380 N 
ATOM     33  HZ1 LYS A   1     -18.663  12.505  54.513  0.00  0.00    -0.089 HD
ATOM     34  HZ2 LYS A   1     -17.829  13.840  53.873  0.00  0.00    -0.089 HD
ATOM     35  HZ3 LYS A   1     -19.428  13.527  53.392  0.00  0.00    -0.089 HD
ENDBRANCH  31  32
ENDBRANCH  30  31
ENDBRANCH  29  30
ENDBRANCH  28  29
ENDBRANCH  25  28
ENDBRANCH  21  25
ENDBRANCH  20  23
BRANCH  20  36
ATOM     36  CB  ILE A   2     -24.456  14.670  48.407  0.00  0.00    +0.027 C 
ATOM     37  CG2 ILE A   2     -25.653  15.320  48.981  0.00  0.00    +0.002 C 
BRANCH  36  38
ATOM     38  CG1 ILE A   2     -24.028  15.394  47.079  0.00  0.00    +0.002 C 
ATOM     39  CD1 ILE A   2     -23.286  14.462  46.187  0.00  0.00    +0.000 C 
ENDBRANCH  36  38
ENDBRANCH  20  36
ENDBRANCH  16  20
ENDBRANCH  15  17
BRANCH  15  40
ATOM     40  CB  ASN A   3     -23.351  14.456  54.270  0.00  0.00    +0.114 C 
BRANCH  40  41
ATOM     41  CG  ASN A   3     -21.811  14.401  54.280  0.00  0.00    +0.222 C 
ATOM     42  ND2 ASN A   3     -21.212  14.795  55.406  0.00  0.00    -0.329 N 
ATOM     43 HD21 ASN A   3     -21.783  15.096  56.221  0.00  0.00    +0.145 HD
ATOM     44 HD22 ASN A   3     -20.174  14.801  55.468  0.00  0.00    +0.145 HD
ATOM     45  OD1 ASN A   3     -21.177  14.039  53.299  0.00  0.00    -0.275 OA
ENDBRANCH  40  41
ENDBRANCH  15  40
ENDBRANCH  11  15
ENDBRANCH  10  12
BRANCH  10  46
ATOM     46  CB  VAL A   4     -27.998  11.420  52.475  0.00  0.00    +0.027 C 
ATOM     47  CG2 VAL A   4     -29.439  10.952  52.760  0.00  0.00    +0.002 C 
ATOM     48  CG1 VAL A   4     -28.007  12.444  51.371  0.00  0.00    +0.002 C 
ENDBRANCH  10  46
ENDBRANCH   6  10
ENDBRANCH   5   7
BRANCH   5  49
ATOM     49  CB  ASP A   5     -27.582  11.490  58.195  0.00  0.00    +0.143 C 
BRANCH  49  50
ATOM     50  CG  ASP A   5     -27.713  10.813  59.546  0.00  0.00    +0.367 C 
ATOM     51  OD2 ASP A   5     -27.242  11.402  60.547  0.00  0.00    -0.246 OA
ATOM     52  OD1 ASP A   5     -28.258   9.698  59.619  0.00  0.00    -0.246 OA
ENDBRANCH  49  50
ENDBRANCH   5  49
ENDBRANCH   1   5
BRANCH   2  53
ATOM     53  CA  SER A   6     -32.008  12.226  58.180  0.00  0.00    +0.178 C 
BRANCH  53  54
ATOM     54  C   SER A   6     -32.988  11.540  57.249  0.00  0.00    +0.243 C 
ATOM     55  O   SER A   6     -33.968  10.950  57.697  0.00  0.00    -0.273 OA
ATOM     56  N   ASP A   7     -32.761  11.627  55.952  0.00  0.00    -0.296 N 
ATOM     57  H   ASP A   7     -31.945  12.163  55.594  0.00  0.00    +0.150 HD
BRANCH  56  58
ATOM     58  CA  ASP A   7     -33.676  10.958  55.025  0.00  0.00    +0.160 C 
BRANCH  58  59
ATOM     59  C   ASP A   7     -33.779   9.448  55.289  0.00  0.00    +0.241 C 
ATOM     60  N   SER A   8     -32.658   8.780  55.552  0.00  0.00    -0.295 N 
ATOM     61  H   SER A   8     -31.751   9.289  55.560  0.00  0.00    +0.150 HD
ATOM     62  O   ASP A   7     -34.867   8.895  55.251  0.00  0.00    -0.273 OA
BRANCH  60  63
ATOM     63  CA  SER A   8     -32.676   7.331  55.832  0.00  0.00    +0.178 C 
BRANCH  63  64
ATOM     64  C   SER A   8     -33.365   7.057  57.151  0.00  0.00    +0.243 C 
ATOM     65  N   ARG A   9     -33.082   7.910  58.124  0.00  0.00    -0.297 N 
ATOM     66  H   ARG A   9     -32.398   8.674  57.952  0.00  0.00    +0.150 HD
ATOM     67  O   SER A   8     -34.098   6.054  57.299  0.00  0.00    -0.273 OA
BRANCH  65  68
ATOM     68  CA  ARG A   9     -33.718   7.793  59.438  0.00  0.00    +0.149 C 
BRANCH  68  69
ATOM     69  C   ARG A   9     -35.236   7.920  59.315  0.00  0.00    +0.241 C 
ATOM     70  O   ARG A   9     -35.984   7.144  59.927  0.00  0.00    -0.273 OA
ATOM     71  N   MET A  10     -35.686   8.920  58.550  0.00  0.00    -0.298 N 
ATOM     72  H   MET A  10     -35.016   9.551  58.065  0.00  0.00    +0.150 HD
BRANCH  71  73
ATOM     73  CA  MET A  10     -37.116   9.118  58.401  0.00  0.00    +0.138 C 
BRANCH  73  74
ATOM     74  C   MET A  10     -37.754   7.969  57.641  0.00  0.00    +0.227 C 
ATOM     75  O   MET A  10     -38.854   7.576  57.980  0.00  0.00    -0.286 OA
ENDBRANCH  73  74
BRANCH  73  76
ATOM     76  CB  MET A  10     -37.418  10.444  57.673  0.00  0.00    +0.039 C 
BRANCH  76  77
ATOM     77  CG  MET A  10     -37.072  11.605  58.533  0.00  0.00    +0.060 C 
BRANCH  77  78
ATOM     78  SD  MET A  10     -37.351  13.178  57.692  0.00  0.00    -0.139 S 
ATOM     79  CE  MET A  10     -39.183  13.205  57.440  0.00  0.00    +0.069 C 
ENDBRANCH  77  78
ENDBRANCH  76  77
ENDBRANCH  73  76
ENDBRANCH  71  73
ENDBRANCH  68  69
BRANCH  68  80
ATOM     80  CB  ARG A   9     -33.225   8.894  60.374  0.00  0.00    +0.033 C 
BRANCH  80  81
ATOM     81  CG  ARG A   9     -31.811   8.713  60.846  0.00  0.00    +0.045 C 
BRANCH  81  82
ATOM     82  CD  ARG A   9     -31.427   9.980  61.668  0.00  0.00    +0.174 C 
BRANCH  82  83
ATOM     83  NE  ARG A   9     -29.997  10.051  61.918  0.00  0.00    -0.265 N 
ATOM     84  CZ  ARG A   9     -29.436  10.878  62.793  0.00  0.00    +0.342 C 
ATOM     85  NH2 ARG A   9     -30.193  11.702  63.505  0.00  0.00    -0.292 N 
ATOM     86 HH21 ARG A   9     -29.754  12.350  64.190  0.00  0.00    +0.255 HD
ATOM     87 HH22 ARG A   9     -31.225  11.700  63.378  0.00  0.00    +0.255 HD
ATOM     88  NH1 ARG A   9     -28.117  10.875  62.961  0.00  0.00    -0.292 N 
ATOM     89 HH11 ARG A   9     -27.679  11.523  63.646  0.00  0.00    +0.255 HD
ATOM     90 HH12 ARG A   9     -27.524  10.225  62.407  0.00  0.00    +0.255 HD
ATOM     91  HE  ARG A   9     -29.375   9.415  61.379  0.00  0.00    +0.259 HD
ENDBRANCH  82  83
ENDBRANCH  81  82
ENDBRANCH  80  81
ENDBRANCH  68  80
ENDBRANCH  65  68
ENDBRANCH  63  64
BRANCH  63  92
ATOM     92  CB  SER A   8     -31.250   6.776  55.910  0.00  0.00    +0.166 C 
BRANCH  92  93
ATOM     93  OG  SER A   8     -30.608   7.001  54.658  0.00  0.00    -0.380 OA
ATOM     94  H   SER A   8     -29.684   6.647  54.694  0.00  0.00    +0.211 HD
ENDBRANCH  92  93
ENDBRANCH  63  92
ENDBRANCH  60  63
ENDBRANCH  58  59
BRANCH  58  95
ATOM     95  CB  ASP A   7     -33.262  11.192  53.556  0.00  0.00    +0.143 C 
BRANCH  95  96
ATOM     96  CG  ASP A   7     -33.591  12.596  53.059  0.00  0.00    +0.367 C 
ATOM     97  OD2 ASP A   7     -34.241  13.373  53.807  0.00  0.00    -0.246 OA
ATOM     98  OD1 ASP A   7     -33.207  12.921  51.906  0.00  0.00    -0.246 OA
ENDBRANCH  95  96
ENDBRANCH  58  95
ENDBRANCH  56  58
ENDBRANCH  53  54
BRANCH  53  99
ATOM     99  CB  SER A   6     -32.427  13.669  58.308  0.00  0.00    +0.166 C 
BRANCH  99 100
ATOM    100  OG  SER A   6     -31.616  14.287  59.292  0.00  0.00    -0.380 OA
ATOM    101  H   SER A   6     -31.737  13.821  60.157  0.00  0.00    +0.211 HD
ENDBRANCH  99 100
ENDBRANCH  53  99
ENDBRANCH   2  53
TORSDOF 45
REMARK  Name = ../refined-set-2016/2isw/2isw_pocket.pdb
REMARK  174 active torsions:
REMARK  status: ('A' for Active; 'I' for Inactive)
REMARK    1  A    between atoms: _1  and  _3
REMARK    2  A    between atoms: _3  and  _4
REMARK    3  A    between atoms: _7  and  _9
REMARK    4  A    between atoms: _9  and  _10
REMARK    5  A    between atoms: _9  and  _12
REMARK    6  A    between atoms: _12  and  _13
REMARK    7  A    between atoms: _19  and  _21
REMARK    8  A    between atoms: _21  and  _22
REMARK    9  A    between atoms: _21  and  _24
REMARK   10  A    between atoms: _24  and  _25
REMARK   11  A    between atoms: _30  and  _32
REMARK   12  A    between atoms: _32  and  _33
REMARK   13  A    between atoms: _32  and  _35
REMARK   14  A    between atoms: _35  and  _36
REMARK   15  A    between atoms: _36  and  _37
REMARK   16  A    between atoms: _42  and  _44
REMARK   17  A    between atoms: _44  and  _45
REMARK   18  A    between atoms: _44  and  _47
REMARK   19  A    between atoms: _47  and  _48
REMARK   20  A    between atoms: _50  and  _52
REMARK   21  A    between atoms: _52  and  _53
REMARK   22  A    between atoms: _52  and  _55
REMARK   23  A    between atoms: _55  and  _56
REMARK   24  A    between atoms: _61  and  _63
REMARK   25  A    between atoms: _63  and  _64
REMARK   26  A    between atoms: _63  and  _66
REMARK   27  A    between atoms: _66  and  _67
REMARK   28  A    between atoms: _70  and  _72
REMARK   29  A    between atoms: _72  and  _73
REMARK   30  A    between atoms: _72  and  _75
REMARK   31  A    between atoms: _75  and  _76
REMARK   32  A    between atoms: _80  and  ZN_397
REMARK   33  A    between atoms: _81  and  _83
REMARK   34  A    between atoms: _83  and  _84
REMARK   35  A    between atoms: _83  and  _86
REMARK   36  A    between atoms: _86  and  _87
REMARK   37  A    between atoms: _87  and  _88
REMARK   38  A    between atoms: _90  and  _92
REMARK   39  A    between atoms: _92  and  _93
REMARK   40  A    between atoms: _92  and  _95
REMARK   41  A    between atoms: _95  and  _96
REMARK   42  A    between atoms: _96  and  _97
REMARK   43  A    between atoms: _100  and  _102
REMARK   44  A    between atoms: _102  and  _103
REMARK   45  A    between atoms: _102  and  _105
REMARK   46  A    between atoms: _105  and  _106
REMARK   47  A    between atoms: _106  and  _107
REMARK   48  A    between atoms: _110  and  _112
REMARK   49  A    between atoms: _112  and  _113
REMARK   50  A    between atoms: _112  and  _115
REMARK   51  A    between atoms: _115  and  _116
REMARK   52  A    between atoms: _119  and  _121
REMARK   53  A    between atoms: _121  and  _122
REMARK   54  A    between atoms: _121  and  _124
REMARK   55  A    between atoms: _124  and  _125
REMARK   56  A    between atoms: _128  and  _130
REMARK   57  A    between atoms: _130  and  _131
REMARK   58  A    between atoms: _130  and  _133
REMARK   59  A    between atoms: _133  and  _134
REMARK   60  A    between atoms: _136  and  _138
REMARK   61  A    between atoms: _138  and  _139
REMARK   62  A    between atoms: _138  and  _141
REMARK   63  A    between atoms: _141  and  _142
REMARK   64  A    between atoms: _146  and  ZN_397
REMARK   65  A    between atoms: _147  and  _149
REMARK   66  A    between atoms: _149  and  _150
REMARK   67  A    between atoms: _152  and  _154
REMARK   68  A    between atoms: _154  and  _155
REMARK   69  A    between atoms: _158  and  _160
REMARK   70  A    between atoms: _160  and  _161
REMARK   71  A    between atoms: _160  and  _163
REMARK   72  A    between atoms: _163  and  _164
REMARK   73  A    between atoms: _169  and  _170
REMARK   74  A    between atoms: _172  and  _174
REMARK   75  A    between atoms: _174  and  _175
REMARK   76  A    between atoms: _174  and  _177
REMARK   77  A    between atoms: _177  and  _178
REMARK   78  A    between atoms: _178  and  _179
REMARK   79  A    between atoms: _179  and  _180
REMARK   80  A    between atoms: _180  and  _181
REMARK   81  A    between atoms: _185  and  _187
REMARK   82  A    between atoms: _187  and  _188
REMARK   83  A    between atoms: _187  and  _190
REMARK   84  A    between atoms: _193  and  _195
REMARK   85  A    between atoms: _195  and  _196
REMARK   86  A    between atoms: _195  and  _198
REMARK   87  A    between atoms: _198  and  _199
REMARK   88  A    between atoms: _199  and  _200
REMARK   89  A    between atoms: _202  and  _204
REMARK   90  A    between atoms: _204  and  _205
REMARK   91  A    between atoms: _204  and  _207
REMARK   92  A    between atoms: _207  and  _208
REMARK   93  A    between atoms: _209  and  ZN_397
REMARK   94  A    between atoms: _213  and  _215
REMARK   95  A    between atoms: _215  and  _216
REMARK   96  A    between atoms: _218  and  _220
REMARK   97  A    between atoms: _220  and  _221
REMARK   98  A    between atoms: _220  and  _223
REMARK   99  A    between atoms: _223  and  _224
REMARK  100  A    between atoms: _226  and  _228
REMARK  101  A    between atoms: _228  and  _229
REMARK  102  A    between atoms: _228  and  _231
REMARK  103  A    between atoms: _231  and  _232
REMARK  104  A    between atoms: _234  and  _236
REMARK  105  A    between atoms: _236  and  _237
REMARK  106  A    between atoms: _236  and  _239
REMARK  107  A    between atoms: _239  and  _240
REMARK  108  A    between atoms: _242  and  _244
REMARK  109  A    between atoms: _244  and  _245
REMARK  110  A    between atoms: _244  and  _247
REMARK  111  A    between atoms: _250  and  _252
REMARK  112  A    between atoms: _252  and  _253
REMARK  113  A    between atoms: _252  and  _255
REMARK  114  A    between atoms: _258  and  _260
REMARK  115  A    between atoms: _260  and  _261
REMARK  116  A    between atoms: _263  and  _265
REMARK  117  A    between atoms: _265  and  _266
REMARK  118  A    between atoms: _265  and  _268
REMARK  119  A    between atoms: _271  and  _273
REMARK  120  A    between atoms: _273  and  _274
REMARK  121  A    between atoms: _273  and  _276
REMARK  122  A    between atoms: _276  and  _277
REMARK  123  A    between atoms: _277  and  _278
REMARK  124  A    between atoms: _278  and  _279
REMARK  125  A    between atoms: _279  and  _280
REMARK  126  A    between atoms: _284  and  _286
REMARK  127  A    between atoms: _286  and  _287
REMARK  128  A    between atoms: _286  and  _289
REMARK  129  A    between atoms: _289  and  _290
REMARK  130  A    between atoms: _293  and  _295
REMARK  131  A    between atoms: _295  and  _296
REMARK  132  A    between atoms: _295  and  _298
REMARK  133  A    between atoms: _298  and  _299
REMARK  134  A    between atoms: _304  and  _306
REMARK  135  A    between atoms: _306  and  _307
REMARK  136  A    between atoms: _306  and  _309
REMARK  137  A    between atoms: _312  and  _314
REMARK  138  A    between atoms: _314  and  _315
REMARK  139  A    between atoms: _314  and  _317
REMARK  140  A    between atoms: _317  and  _318
REMARK  141  A    between atoms: _321  and  _323
REMARK  142  A    between atoms: _323  and  _324
REMARK  143  A    between atoms: _323  and  _326
REMARK  144  A    between atoms: _326  and  _327
REMARK  145  A    between atoms: _329  and  _331
REMARK  146  A    between atoms: _331  and  _332
REMARK  147  A    between atoms: _331  and  _334
REMARK  148  A    between atoms: _334  and  _335
REMARK  149  A    between atoms: _338  and  _340
REMARK  150  A    between atoms: _340  and  _341
REMARK  151  A    between atoms: _340  and  _343
REMARK  152  A    between atoms: _343  and  _344
REMARK  153  A    between atoms: _346  and  _348
REMARK  154  A    between atoms: _348  and  _349
REMARK  155  A    between atoms: _348  and  _351
REMARK  156  A    between atoms: _351  and  _352
REMARK  157  A    between atoms: _352  and  _353
REMARK  158  A    between atoms: _353  and  _354
REMARK  159  A    between atoms: _363  and  _365
REMARK  160  A    between atoms: _365  and  _366
REMARK  161  A    between atoms: _365  and  _368
REMARK  162  A    between atoms: _368  and  _369
REMARK  163  A    between atoms: _369  and  _370
REMARK  164  A    between atoms: _372  and  _374
REMARK  165  A    between atoms: _374  and  _375
REMARK  166  A    between atoms: _374  and  _377
REMARK  167  A    between atoms: _377  and  _378
REMARK  168  A    between atoms: _378  and  _379
REMARK  169  A    between atoms: _379  and  _380
REMARK  170  A    between atoms: _380  and  _381
REMARK  171  A    between atoms: _385  and  _387
REMARK  172  A    between atoms: _387  and  _388
REMARK  173  A    between atoms: _387  and  _390
REMARK  174  A    between atoms: _390  and  _391
REMARK                            x       y       z     vdW  Elec       q    Type
REMARK                         _______ _______ _______ _____ _____    ______ ____
ROOT
ATOM      1  CG  LYS A   1     -30.460  11.186  47.054  0.00  0.00    -0.000 C 
ENDROOT
BRANCH   1   2
ATOM      2  CB  LYS A   1     -31.396  10.177  46.456  0.00  0.00    +0.025 C 
BRANCH   2   3
ATOM      3  CA  LYS A   1     -31.407  10.215  44.896  0.00  0.00    +0.133 C 
BRANCH   3   4
ATOM      4  N   LYS A   1     -32.377   9.254  44.426  0.00  0.00    -0.239 NA
ATOM      5  H   LYS A   1     -32.749   8.544  45.089  0.00  0.00    +0.142 HD
ENDBRANCH   3   4
BRANCH   3   6
ATOM      6  C   LYS A   1     -30.038   9.924  44.263  0.00  0.00    +0.224 C 
ATOM      7  O   LYS A   1     -29.347  10.851  43.772  0.00  0.00    -0.287 OA
ENDBRANCH   3   6
ENDBRANCH   2   3
ENDBRANCH   1   2
BRANCH   1   8
ATOM      8  CD  LYS A   1     -30.226  10.945  48.551  0.00  0.00    -0.024 C 
BRANCH   8   9
ATOM      9  CE  LYS A   1     -31.516  10.885  49.375  0.00  0.00    -0.086 C 
BRANCH   9  10
ATOM     10  NZ  LYS A   1     -32.315  12.156  49.469  0.00  0.00    +0.380 N 
ATOM     11  HZ1 LYS A   1     -33.161  11.990  50.050  0.00  0.00    -0.089 HD
ATOM     12  HZ2 LYS A   1     -31.733  12.898  49.907  0.00  0.00    -0.089 HD
ATOM     13  HZ3 LYS A   1     -32.601  12.455  48.515  0.00  0.00    -0.089 HD
ENDBRANCH   9  10
ENDBRANCH   8   9
ENDBRANCH   1   8
TORSDOF 7
REMARK  Name = ../refined-set-2016/2isw/2isw_pocket.pdb
REMARK  174 active torsions:
REMARK  status: ('A' for Active; 'I' for Inactive)
REMARK    1  A    between atoms: _1  and  _3
REMARK    2  A    between atoms: _3  and  _4
REMARK    3  A    between atoms: _7  and  _9
REMARK    4  A    between atoms: _9  and  _10
REMARK    5  A    between atoms: _9  and  _12
REMARK    6  A    between atoms: _12  and  _13
REMARK    7  A    between atoms: _19  and  _21
REMARK    8  A    between atoms: _21  and  _22
REMARK    9  A    between atoms: _21  and  _24
REMARK   10  A    between atoms: _24  and  _25
REMARK   11  A    between atoms: _30  and  _32
REMARK   12  A    between atoms: _32  and  _33
REMARK   13  A    between atoms: _32  and  _35
REMARK   14  A    between atoms: _35  and  _36
REMARK   15  A    between atoms: _36  and  _37
REMARK   16  A    between atoms: _42  and  _44
REMARK   17  A    between atoms: _44  and  _45
REMARK   18  A    between atoms: _44  and  _47
REMARK   19  A    between atoms: _47  and  _48
REMARK   20  A    between atoms: _50  and  _52
REMARK   21  A    between atoms: _52  and  _53
REMARK   22  A    between atoms: _52  and  _55
REMARK   23  A    between atoms: _55  and  _56
REMARK   24  A    between atoms: _61  and  _63
REMARK   25  A    between atoms: _63  and  _64
REMARK   26  A    between atoms: _63  and  _66
REMARK   27  A    between atoms: _66  and  _67
REMARK   28  A    between atoms: _70  and  _72
REMARK   29  A    between atoms: _72  and  _73
REMARK   30  A    between atoms: _72  and  _75
REMARK   31  A    between atoms: _75  and  _76
REMARK   32  A    between atoms: _80  and  ZN_397
REMARK   33  A    between atoms: _81  and  _83
REMARK   34  A    between atoms: _83  and  _84
REMARK   35  A    between atoms: _83  and  _86
REMARK   36  A    between atoms: _86  and  _87
REMARK   37  A    between atoms: _87  and  _88
REMARK   38  A    between atoms: _90  and  _92
REMARK   39  A    between atoms: _92  and  _93
REMARK   40  A    between atoms: _92  and  _95
REMARK   41  A    between atoms: _95  and  _96
REMARK   42  A    between atoms: _96  and  _97
REMARK   43  A    between atoms: _100  and  _102
REMARK   44  A    between atoms: _102  and  _103
REMARK   45  A    between atoms: _102  and  _105
REMARK   46  A    between atoms: _105  and  _106
REMARK   47  A    between atoms: _106  and  _107
REMARK   48  A    between atoms: _110  and  _112
REMARK   49  A    between atoms: _112  and  _113
REMARK   50  A    between atoms: _112  and  _115
REMARK   51  A    between atoms: _115  and  _116
REMARK   52  A    between atoms: _119  and  _121
REMARK   53  A    between atoms: _121  and  _122
REMARK   54  A    between atoms: _121  and  _124
REMARK   55  A    between atoms: _124  and  _125
REMARK   56  A    between atoms: _128  and  _130
REMARK   57  A    between atoms: _130  and  _131
REMARK   58  A    between atoms: _130  and  _133
REMARK   59  A    between atoms: _133  and  _134
REMARK   60  A    between atoms: _136  and  _138
REMARK   61  A    between atoms: _138  and  _139
REMARK   62  A    between atoms: _138  and  _141
REMARK   63  A    between atoms: _141  and  _142
REMARK   64  A    between atoms: _146  and  ZN_397
REMARK   65  A    between atoms: _147  and  _149
REMARK   66  A    between atoms: _149  and  _150
REMARK   67  A    between atoms: _152  and  _154
REMARK   68  A    between atoms: _154  and  _155
REMARK   69  A    between atoms: _158  and  _160
REMARK   70  A    between atoms: _160  and  _161
REMARK   71  A    between atoms: _160  and  _163
REMARK   72  A    between atoms: _163  and  _164
REMARK   73  A    between atoms: _169  and  _170
REMARK   74  A    between atoms: _172  and  _174
REMARK   75  A    between atoms: _174  and  _175
REMARK   76  A    between atoms: _174  and  _177
REMARK   77  A    between atoms: _177  and  _178
REMARK   78  A    between atoms: _178  and  _179
REMARK   79  A    between atoms: _179  and  _180
REMARK   80  A    between atoms: _180  and  _181
REMARK   81  A    between atoms: _185  and  _187
REMARK   82  A    between atoms: _187  and  _188
REMARK   83  A    between atoms: _187  and  _190
REMARK   84  A    between atoms: _193  and  _195
REMARK   85  A    between atoms: _195  and  _196
REMARK   86  A    between atoms: _195  and  _198
REMARK   87  A    between atoms: _198  and  _199
REMARK   88  A    between atoms: _199  and  _200
REMARK   89  A    between atoms: _202  and  _204
REMARK   90  A    between atoms: _204  and  _205
REMARK   91  A    between atoms: _204  and  _207
REMARK   92  A    between atoms: _207  and  _208
REMARK   93  A    between atoms: _209  and  ZN_397
REMARK   94  A    between atoms: _213  and  _215
REMARK   95  A    between atoms: _215  and  _216
REMARK   96  A    between atoms: _218  and  _220
REMARK   97  A    between atoms: _220  and  _221
REMARK   98  A    between atoms: _220  and  _223
REMARK   99  A    between atoms: _223  and  _224
REMARK  100  A    between atoms: _226  and  _228
REMARK  101  A    between atoms: _228  and  _229
REMARK  102  A    between atoms: _228  and  _231
REMARK  103  A    between atoms: _231  and  _232
REMARK  104  A    between atoms: _234  and  _236
REMARK  105  A    between atoms: _236  and  _237
REMARK  106  A    between atoms: _236  and  _239
REMARK  107  A    between atoms: _239  and  _240
REMARK  108  A    between atoms: _242  and  _244
REMARK  109  A    between atoms: _244  and  _245
REMARK  110  A    between atoms: _244  and  _247
REMARK  111  A    between atoms: _250  and  _252
REMARK  112  A    between atoms: _252  and  _253
REMARK  113  A    between atoms: _252  and  _255
REMARK  114  A    between atoms: _258  and  _260
REMARK  115  A    between atoms: _260  and  _261
REMARK  116  A    between atoms: _263  and  _265
REMARK  117  A    between atoms: _265  and  _266
REMARK  118  A    between atoms: _265  and  _268
REMARK  119  A    between atoms: _271  and  _273
REMARK  120  A    between atoms: _273  and  _274
REMARK  121  A    between atoms: _273  and  _276
REMARK  122  A    between atoms: _276  and  _277
REMARK  123  A    between atoms: _277  and  _278
REMARK  124  A    between atoms: _278  and  _279
REMARK  125  A    between atoms: _279  and  _280
REMARK  126  A    between atoms: _284  and  _286
REMARK  127  A    between atoms: _286  and  _287
REMARK  128  A    between atoms: _286  and  _289
REMARK  129  A    between atoms: _289  and  _290
REMARK  130  A    between atoms: _293  and  _295
REMARK  131  A    between atoms: _295  and  _296
REMARK  132  A    between atoms: _295  and  _298
REMARK  133  A    between atoms: _298  and  _299
REMARK  134  A    between atoms: _304  and  _306
REMARK  135  A    between atoms: _306  and  _307
REMARK  136  A    between atoms: _306  and  _309
REMARK  137  A    between atoms: _312  and  _314
REMARK  138  A    between atoms: _314  and  _315
REMARK  139  A    between atoms: _314  and  _317
REMARK  140  A    between atoms: _317  and  _318
REMARK  141  A    between atoms: _321  and  _323
REMARK  142  A    between atoms: _323  and  _324
REMARK  143  A    between atoms: _323  and  _326
REMARK  144  A    between atoms: _326  and  _327
REMARK  145  A    between atoms: _329  and  _331
REMARK  146  A    between atoms: _331  and  _332
REMARK  147  A    between atoms: _331  and  _334
REMARK  148  A    between atoms: _334  and  _335
REMARK  149  A    between atoms: _338  and  _340
REMARK  150  A    between atoms: _340  and  _341
REMARK  151  A    between atoms: _340  and  _343
REMARK  152  A    between atoms: _343  and  _344
REMARK  153  A    between atoms: _346  and  _348
REMARK  154  A    between atoms: _348  and  _349
REMARK  155  A    between atoms: _348  and  _351
REMARK  156  A    between atoms: _351  and  _352
REMARK  157  A    between atoms: _352  and  _353
REMARK  158  A    between atoms: _353  and  _354
REMARK  159  A    between atoms: _363  and  _365
REMARK  160  A    between atoms: _365  and  _366
REMARK  161  A    between atoms: _365  and  _368
REMARK  162  A    between atoms: _368  and  _369
REMARK  163  A    between atoms: _369  and  _370
REMARK  164  A    between atoms: _372  and  _374
REMARK  165  A    between atoms: _374  and  _375
REMARK  166  A    between atoms: _374  and  _377
REMARK  167  A    between atoms: _377  and  _378
REMARK  168  A    between atoms: _378  and  _379
REMARK  169  A    between atoms: _379  and  _380
REMARK  170  A    between atoms: _380  and  _381
REMARK  171  A    between atoms: _385  and  _387
REMARK  172  A    between atoms: _387  and  _388
REMARK  173  A    between atoms: _387  and  _390
REMARK  174  A    between atoms: _390  and  _391
REMARK                            x       y       z     vdW  Elec       q    Type
REMARK                         _______ _______ _______ _____ _____    ______ ____
ROOT
ATOM      1  CB  PHE A   1     -37.516  10.454  62.845  0.00  0.00    +0.051 C 
ENDROOT
BRANCH   1   2
ATOM      2  CG  PHE A   1     -36.544  11.580  62.535  0.00  0.00    -0.020 A 
ATOM      3  CD2 PHE A   1     -36.618  12.775  63.224  0.00  0.00    -0.004 A 
ATOM      4  CE2 PHE A   1     -35.747  13.827  62.946  0.00  0.00    -0.000 A 
ATOM      5  CZ  PHE A   1     -34.781  13.685  61.955  0.00  0.00    -0.000 A 
ATOM      6  CE1 PHE A   1     -34.681  12.494  61.241  0.00  0.00    -0.000 A 
ATOM      7  CD1 PHE A   1     -35.564  11.434  61.532  0.00  0.00    -0.004 A 
ENDBRANCH   1   2
BRANCH   1   8
ATOM      8  CA  PHE A   1     -37.194   9.674  64.139  0.00  0.00    +0.137 C 
BRANCH   8   9
ATOM      9  N   PHE A   1     -37.274  10.522  65.314  0.00  0.00    -0.239 NA
ATOM     10  H   PHE A   1     -36.538  11.235  65.494  0.00  0.00    +0.142 HD
ENDBRANCH   8   9
BRANCH   8  11
ATOM     11  C   PHE A   1     -35.860   8.957  63.966  0.00  0.00    +0.224 C 
ATOM     12  O   PHE A   1     -35.708   8.175  63.036  0.00  0.00    -0.287 OA
ENDBRANCH   8  11
ENDBRANCH   1   8
TORSDOF 4
REMARK  Name = ../refined-set-2016/2isw/2isw_pocket.pdb
REMARK  174 active torsions:
REMARK  status: ('A' for Active; 'I' for Inactive)
REMARK    1  A    between atoms: _1  and  _3
REMARK    2  A    between atoms: _3  and  _4
REMARK    3  A    between atoms: _7  and  _9
REMARK    4  A    between atoms: _9  and  _10
REMARK    5  A    between atoms: _9  and  _12
REMARK    6  A    between atoms: _12  and  _13
REMARK    7  A    between atoms: _19  and  _21
REMARK    8  A    between atoms: _21  and  _22
REMARK    9  A    between atoms: _21  and  _24
REMARK   10  A    between atoms: _24  and  _25
REMARK   11  A    between atoms: _30  and  _32
REMARK   12  A    between atoms: _32  and  _33
REMARK   13  A    between atoms: _32  and  _35
REMARK   14  A    between atoms: _35  and  _36
REMARK   15  A    between atoms: _36  and  _37
REMARK   16  A    between atoms: _42  and  _44
REMARK   17  A    between atoms: _44  and  _45
REMARK   18  A    between atoms: _44  and  _47
REMARK   19  A    between atoms: _47  and  _48
REMARK   20  A    between atoms: _50  and  _52
REMARK   21  A    between atoms: _52  and  _53
REMARK   22  A    between atoms: _52  and  _55
REMARK   23  A    between atoms: _55  and  _56
REMARK   24  A    between atoms: _61  and  _63
REMARK   25  A    between atoms: _63  and  _64
REMARK   26  A    between atoms: _63  and  _66
REMARK   27  A    between atoms: _66  and  _67
REMARK   28  A    between atoms: _70  and  _72
REMARK   29  A    between atoms: _72  and  _73
REMARK   30  A    between atoms: _72  and  _75
REMARK   31  A    between atoms: _75  and  _76
REMARK   32  A    between atoms: _80  and  ZN_397
REMARK   33  A    between atoms: _81  and  _83
REMARK   34  A    between atoms: _83  and  _84
REMARK   35  A    between atoms: _83  and  _86
REMARK   36  A    between atoms: _86  and  _87
REMARK   37  A    between atoms: _87  and  _88
REMARK   38  A    between atoms: _90  and  _92
REMARK   39  A    between atoms: _92  and  _93
REMARK   40  A    between atoms: _92  and  _95
REMARK   41  A    between atoms: _95  and  _96
REMARK   42  A    between atoms: _96  and  _97
REMARK   43  A    between atoms: _100  and  _102
REMARK   44  A    between atoms: _102  and  _103
REMARK   45  A    between atoms: _102  and  _105
REMARK   46  A    between atoms: _105  and  _106
REMARK   47  A    between atoms: _106  and  _107
REMARK   48  A    between atoms: _110  and  _112
REMARK   49  A    between atoms: _112  and  _113
REMARK   50  A    between atoms: _112  and  _115
REMARK   51  A    between atoms: _115  and  _116
REMARK   52  A    between atoms: _119  and  _121
REMARK   53  A    between atoms: _121  and  _122
REMARK   54  A    between atoms: _121  and  _124
REMARK   55  A    between atoms: _124  and  _125
REMARK   56  A    between atoms: _128  and  _130
REMARK   57  A    between atoms: _130  and  _131
REMARK   58  A    between atoms: _130  and  _133
REMARK   59  A    between atoms: _133  and  _134
REMARK   60  A    between atoms: _136  and  _138
REMARK   61  A    between atoms: _138  and  _139
REMARK   62  A    between atoms: _138  and  _141
REMARK   63  A    between atoms: _141  and  _142
REMARK   64  A    between atoms: _146  and  ZN_397
REMARK   65  A    between atoms: _147  and  _149
REMARK   66  A    between atoms: _149  and  _150
REMARK   67  A    between atoms: _152  and  _154
REMARK   68  A    between atoms: _154  and  _155
REMARK   69  A    between atoms: _158  and  _160
REMARK   70  A    between atoms: _160  and  _161
REMARK   71  A    between atoms: _160  and  _163
REMARK   72  A    between atoms: _163  and  _164
REMARK   73  A    between atoms: _169  and  _170
REMARK   74  A    between atoms: _172  and  _174
REMARK   75  A    between atoms: _174  and  _175
REMARK   76  A    between atoms: _174  and  _177
REMARK   77  A    between atoms: _177  and  _178
REMARK   78  A    between atoms: _178  and  _179
REMARK   79  A    between atoms: _179  and  _180
REMARK   80  A    between atoms: _180  and  _181
REMARK   81  A    between atoms: _185  and  _187
REMARK   82  A    between atoms: _187  and  _188
REMARK   83  A    between atoms: _187  and  _190
REMARK   84  A    between atoms: _193  and  _195
REMARK   85  A    between atoms: _195  and  _196
REMARK   86  A    between atoms: _195  and  _198
REMARK   87  A    between atoms: _198  and  _199
REMARK   88  A    between atoms: _199  and  _200
REMARK   89  A    between atoms: _202  and  _204
REMARK   90  A    between atoms: _204  and  _205
REMARK   91  A    between atoms: _204  and  _207
REMARK   92  A    between atoms: _207  and  _208
REMARK   93  A    between atoms: _209  and  ZN_397
REMARK   94  A    between atoms: _213  and  _215
REMARK   95  A    between atoms: _215  and  _216
REMARK   96  A    between atoms: _218  and  _220
REMARK   97  A    between atoms: _220  and  _221
REMARK   98  A    between atoms: _220  and  _223
REMARK   99  A    between atoms: _223  and  _224
REMARK  100  A    between atoms: _226  and  _228
REMARK  101  A    between atoms: _228  and  _229
REMARK  102  A    between atoms: _228  and  _231
REMARK  103  A    between atoms: _231  and  _232
REMARK  104  A    between atoms: _234  and  _236
REMARK  105  A    between atoms: _236  and  _237
REMARK  106  A    between atoms: _236  and  _239
REMARK  107  A    between atoms: _239  and  _240
REMARK  108  A    between atoms: _242  and  _244
REMARK  109  A    between atoms: _244  and  _245
REMARK  110  A    between atoms: _244  and  _247
REMARK  111  A    between atoms: _250  and  _252
REMARK  112  A    between atoms: _252  and  _253
REMARK  113  A    between atoms: _252  and  _255
REMARK  114  A    between atoms: _258  and  _260
REMARK  115  A    between atoms: _260  and  _261
REMARK  116  A    between atoms: _263  and  _265
REMARK  117  A    between atoms: _265  and  _266
REMARK  118  A    between atoms: _265  and  _268
REMARK  119  A    between atoms: _271  and  _273
REMARK  120  A    between atoms: _273  and  _274
REMARK  121  A    between atoms: _273  and  _276
REMARK  122  A    between atoms: _276  and  _277
REMARK  123  A    between atoms: _277  and  _278
REMARK  124  A    between atoms: _278  and  _279
REMARK  125  A    between atoms: _279  and  _280
REMARK  126  A    between atoms: _284  and  _286
REMARK  127  A    between atoms: _286  and  _287
REMARK  128  A    between atoms: _286  and  _289
REMARK  129  A    between atoms: _289  and  _290
REMARK  130  A    between atoms: _293  and  _295
REMARK  131  A    between atoms: _295  and  _296
REMARK  132  A    between atoms: _295  and  _298
REMARK  133  A    between atoms: _298  and  _299
REMARK  134  A    between atoms: _304  and  _306
REMARK  135  A    between atoms: _306  and  _307
REMARK  136  A    between atoms: _306  and  _309
REMARK  137  A    between atoms: _312  and  _314
REMARK  138  A    between atoms: _314  and  _315
REMARK  139  A    between atoms: _314  and  _317
REMARK  140  A    between atoms: _317  and  _318
REMARK  141  A    between atoms: _321  and  _323
REMARK  142  A    between atoms: _323  and  _324
REMARK  143  A    between atoms: _323  and  _326
REMARK  144  A    between atoms: _326  and  _327
REMARK  145  A    between atoms: _329  and  _331
REMARK  146  A    between atoms: _331  and  _332
REMARK  147  A    between atoms: _331  and  _334
REMARK  148  A    between atoms: _334  and  _335
REMARK  149  A    between atoms: _338  and  _340
REMARK  150  A    between atoms: _340  and  _341
REMARK  151  A    between atoms: _340  and  _343
REMARK  152  A    between atoms: _343  and  _344
REMARK  153  A    between atoms: _346  and  _348
REMARK  154  A    between atoms: _348  and  _349
REMARK  155  A    between atoms: _348  and  _351
REMARK  156  A    between atoms: _351  and  _352
REMARK  157  A    between atoms: _352  and  _353
REMARK  158  A    between atoms: _353  and  _354
REMARK  159  A    between atoms: _363  and  _365
REMARK  160  A    between atoms: _365  and  _366
REMARK  161  A    between atoms: _365  and  _368
REMARK  162  A    between atoms: _368  and  _369
REMARK  163  A    between atoms: _369  and  _370
REMARK  164  A    between atoms: _372  and  _374
REMARK  165  A    between atoms: _374  and  _375
REMARK  166  A    between atoms: _374  and  _377
REMARK  167  A    between atoms: _377  and  _378
REMARK  168  A    between atoms: _378  and  _379
REMARK  169  A    between atoms: _379  and  _380
REMARK  170  A    between atoms: _380  and  _381
REMARK  171  A    between atoms: _385  and  _387
REMARK  172  A    between atoms: _387  and  _388
REMARK  173  A    between atoms: _387  and  _390
REMARK  174  A    between atoms: _390  and  _391
REMARK                            x       y       z     vdW  Elec       q    Type
REMARK                         _______ _______ _______ _____ _____    ______ ____
ROOT
ATOM      1  O   HOH     1     -28.020   7.578  55.524  0.00  0.00    +0.000 OA
ENDROOT
TORSDOF 0
REMARK  Name = ../refined-set-2016/2isw/2isw_pocket.pdb
REMARK  174 active torsions:
REMARK  status: ('A' for Active; 'I' for Inactive)
REMARK    1  A    between atoms: _1  and  _3
REMARK    2  A    between atoms: _3  and  _4
REMARK    3  A    between atoms: _7  and  _9
REMARK    4  A    between atoms: _9  and  _10
REMARK    5  A    between atoms: _9  and  _12
REMARK    6  A    between atoms: _12  and  _13
REMARK    7  A    between atoms: _19  and  _21
REMARK    8  A    between atoms: _21  and  _22
REMARK    9  A    between atoms: _21  and  _24
REMARK   10  A    between atoms: _24  and  _25
REMARK   11  A    between atoms: _30  and  _32
REMARK   12  A    between atoms: _32  and  _33
REMARK   13  A    between atoms: _32  and  _35
REMARK   14  A    between atoms: _35  and  _36
REMARK   15  A    between atoms: _36  and  _37
REMARK   16  A    between atoms: _42  and  _44
REMARK   17  A    between atoms: _44  and  _45
REMARK   18  A    between atoms: _44  and  _47
REMARK   19  A    between atoms: _47  and  _48
REMARK   20  A    between atoms: _50  and  _52
REMARK   21  A    between atoms: _52  and  _53
REMARK   22  A    between atoms: _52  and  _55
REMARK   23  A    between atoms: _55  and  _56
REMARK   24  A    between atoms: _61  and  _63
REMARK   25  A    between atoms: _63  and  _64
REMARK   26  A    between atoms: _63  and  _66
REMARK   27  A    between atoms: _66  and  _67
REMARK   28  A    between atoms: _70  and  _72
REMARK   29  A    between atoms: _72  and  _73
REMARK   30  A    between atoms: _72  and  _75
REMARK   31  A    between atoms: _75  and  _76
REMARK   32  A    between atoms: _80  and  ZN_397
REMARK   33  A    between atoms: _81  and  _83
REMARK   34  A    between atoms: _83  and  _84
REMARK   35  A    between atoms: _83  and  _86
REMARK   36  A    between atoms: _86  and  _87
REMARK   37  A    between atoms: _87  and  _88
REMARK   38  A    between atoms: _90  and  _92
REMARK   39  A    between atoms: _92  and  _93
REMARK   40  A    between atoms: _92  and  _95
REMARK   41  A    between atoms: _95  and  _96
REMARK   42  A    between atoms: _96  and  _97
REMARK   43  A    between atoms: _100  and  _102
REMARK   44  A    between atoms: _102  and  _103
REMARK   45  A    between atoms: _102  and  _105
REMARK   46  A    between atoms: _105  and  _106
REMARK   47  A    between atoms: _106  and  _107
REMARK   48  A    between atoms: _110  and  _112
REMARK   49  A    between atoms: _112  and  _113
REMARK   50  A    between atoms: _112  and  _115
REMARK   51  A    between atoms: _115  and  _116
REMARK   52  A    between atoms: _119  and  _121
REMARK   53  A    between atoms: _121  and  _122
REMARK   54  A    between atoms: _121  and  _124
REMARK   55  A    between atoms: _124  and  _125
REMARK   56  A    between atoms: _128  and  _130
REMARK   57  A    between atoms: _130  and  _131
REMARK   58  A    between atoms: _130  and  _133
REMARK   59  A    between atoms: _133  and  _134
REMARK   60  A    between atoms: _136  and  _138
REMARK   61  A    between atoms: _138  and  _139
REMARK   62  A    between atoms: _138  and  _141
REMARK   63  A    between atoms: _141  and  _142
REMARK   64  A    between atoms: _146  and  ZN_397
REMARK   65  A    between atoms: _147  and  _149
REMARK   66  A    between atoms: _149  and  _150
REMARK   67  A    between atoms: _152  and  _154
REMARK   68  A    between atoms: _154  and  _155
REMARK   69  A    between atoms: _158  and  _160
REMARK   70  A    between atoms: _160  and  _161
REMARK   71  A    between atoms: _160  and  _163
REMARK   72  A    between atoms: _163  and  _164
REMARK   73  A    between atoms: _169  and  _170
REMARK   74  A    between atoms: _172  and  _174
REMARK   75  A    between atoms: _174  and  _175
REMARK   76  A    between atoms: _174  and  _177
REMARK   77  A    between atoms: _177  and  _178
REMARK   78  A    between atoms: _178  and  _179
REMARK   79  A    between atoms: _179  and  _180
REMARK   80  A    between atoms: _180  and  _181
REMARK   81  A    between atoms: _185  and  _187
REMARK   82  A    between atoms: _187  and  _188
REMARK   83  A    between atoms: _187  and  _190
REMARK   84  A    between atoms: _193  and  _195
REMARK   85  A    between atoms: _195  and  _196
REMARK   86  A    between atoms: _195  and  _198
REMARK   87  A    between atoms: _198  and  _199
REMARK   88  A    between atoms: _199  and  _200
REMARK   89  A    between atoms: _202  and  _204
REMARK   90  A    between atoms: _204  and  _205
REMARK   91  A    between atoms: _204  and  _207
REMARK   92  A    between atoms: _207  and  _208
REMARK   93  A    between atoms: _209  and  ZN_397
REMARK   94  A    between atoms: _213  and  _215
REMARK   95  A    between atoms: _215  and  _216
REMARK   96  A    between atoms: _218  and  _220
REMARK   97  A    between atoms: _220  and  _221
REMARK   98  A    between atoms: _220  and  _223
REMARK   99  A    between atoms: _223  and  _224
REMARK  100  A    between atoms: _226  and  _228
REMARK  101  A    between atoms: _228  and  _229
REMARK  102  A    between atoms: _228  and  _231
REMARK  103  A    between atoms: _231  and  _232
REMARK  104  A    between atoms: _234  and  _236
REMARK  105  A    between atoms: _236  and  _237
REMARK  106  A    between atoms: _236  and  _239
REMARK  107  A    between atoms: _239  and  _240
REMARK  108  A    between atoms: _242  and  _244
REMARK  109  A    between atoms: _244  and  _245
REMARK  110  A    between atoms: _244  and  _247
REMARK  111  A    between atoms: _250  and  _252
REMARK  112  A    between atoms: _252  and  _253
REMARK  113  A    between atoms: _252  and  _255
REMARK  114  A    between atoms: _258  and  _260
REMARK  115  A    between atoms: _260  and  _261
REMARK  116  A    between atoms: _263  and  _265
REMARK  117  A    between atoms: _265  and  _266
REMARK  118  A    between atoms: _265  and  _268
REMARK  119  A    between atoms: _271  and  _273
REMARK  120  A    between atoms: _273  and  _274
REMARK  121  A    between atoms: _273  and  _276
REMARK  122  A    between atoms: _276  and  _277
REMARK  123  A    between atoms: _277  and  _278
REMARK  124  A    between atoms: _278  and  _279
REMARK  125  A    between atoms: _279  and  _280
REMARK  126  A    between atoms: _284  and  _286
REMARK  127  A    between atoms: _286  and  _287
REMARK  128  A    between atoms: _286  and  _289
REMARK  129  A    between atoms: _289  and  _290
REMARK  130  A    between atoms: _293  and  _295
REMARK  131  A    between atoms: _295  and  _296
REMARK  132  A    between atoms: _295  and  _298
REMARK  133  A    between atoms: _298  and  _299
REMARK  134  A    between atoms: _304  and  _306
REMARK  135  A    between atoms: _306  and  _307
REMARK  136  A    between atoms: _306  and  _309
REMARK  137  A    between atoms: _312  and  _314
REMARK  138  A    between atoms: _314  and  _315
REMARK  139  A    between atoms: _314  and  _317
REMARK  140  A    between atoms: _317  and  _318
REMARK  141  A    between atoms: _321  and  _323
REMARK  142  A    between atoms: _323  and  _324
REMARK  143  A    between atoms: _323  and  _326
REMARK  144  A    between atoms: _326  and  _327
REMARK  145  A    between atoms: _329  and  _331
REMARK  146  A    between atoms: _331  and  _332
REMARK  147  A    between atoms: _331  and  _334
REMARK  148  A    between atoms: _334  and  _335
REMARK  149  A    between atoms: _338  and  _340
REMARK  150  A    between atoms: _340  and  _341
REMARK  151  A    between atoms: _340  and  _343
REMARK  152  A    between atoms: _343  and  _344
REMARK  153  A    between atoms: _346  and  _348
REMARK  154  A    between atoms: _348  and  _349
REMARK  155  A    between atoms: _348  and  _351
REMARK  156  A    between atoms: _351  and  _352
REMARK  157  A    between atoms: _352  and  _353
REMARK  158  A    between atoms: _353  and  _354
REMARK  159  A    between atoms: _363  and  _365
REMARK  160  A    between atoms: _365  and  _366
REMARK  161  A    between atoms: _365  and  _368
REMARK  162  A    between atoms: _368  and  _369
REMARK  163  A    between atoms: _369  and  _370
REMARK  164  A    between atoms: _372  and  _374
REMARK  165  A    between atoms: _374  and  _375
REMARK  166  A    between atoms: _374  and  _377
REMARK  167  A    between atoms: _377  and  _378
REMARK  168  A    between atoms: _378  and  _379
REMARK  169  A    between atoms: _379  and  _380
REMARK  170  A    between atoms: _380  and  _381
REMARK  171  A    between atoms: _385  and  _387
REMARK  172  A    between atoms: _387  and  _388
REMARK  173  A    between atoms: _387  and  _390
REMARK  174  A    between atoms: _390  and  _391
REMARK                            x       y       z     vdW  Elec       q    Type
REMARK                         _______ _______ _______ _____ _____    ______ ____
ROOT
ATOM      1  O   HOH     1     -30.584  14.507  49.327  0.00  0.00    +0.000 OA
ENDROOT
TORSDOF 0
REMARK  Name = ../refined-set-2016/2isw/2isw_pocket.pdb
REMARK  174 active torsions:
REMARK  status: ('A' for Active; 'I' for Inactive)
REMARK    1  A    between atoms: _1  and  _3
REMARK    2  A    between atoms: _3  and  _4
REMARK    3  A    between atoms: _7  and  _9
REMARK    4  A    between atoms: _9  and  _10
REMARK    5  A    between atoms: _9  and  _12
REMARK    6  A    between atoms: _12  and  _13
REMARK    7  A    between atoms: _19  and  _21
REMARK    8  A    between atoms: _21  and  _22
REMARK    9  A    between atoms: _21  and  _24
REMARK   10  A    between atoms: _24  and  _25
REMARK   11  A    between atoms: _30  and  _32
REMARK   12  A    between atoms: _32  and  _33
REMARK   13  A    between atoms: _32  and  _35
REMARK   14  A    between atoms: _35  and  _36
REMARK   15  A    between atoms: _36  and  _37
REMARK   16  A    between atoms: _42  and  _44
REMARK   17  A    between atoms: _44  and  _45
REMARK   18  A    between atoms: _44  and  _47
REMARK   19  A    between atoms: _47  and  _48
REMARK   20  A    between atoms: _50  and  _52
REMARK   21  A    between atoms: _52  and  _53
REMARK   22  A    between atoms: _52  and  _55
REMARK   23  A    between atoms: _55  and  _56
REMARK   24  A    between atoms: _61  and  _63
REMARK   25  A    between atoms: _63  and  _64
REMARK   26  A    between atoms: _63  and  _66
REMARK   27  A    between atoms: _66  and  _67
REMARK   28  A    between atoms: _70  and  _72
REMARK   29  A    between atoms: _72  and  _73
REMARK   30  A    between atoms: _72  and  _75
REMARK   31  A    between atoms: _75  and  _76
REMARK   32  A    between atoms: _80  and  ZN_397
REMARK   33  A    between atoms: _81  and  _83
REMARK   34  A    between atoms: _83  and  _84
REMARK   35  A    between atoms: _83  and  _86
REMARK   36  A    between atoms: _86  and  _87
REMARK   37  A    between atoms: _87  and  _88
REMARK   38  A    between atoms: _90  and  _92
REMARK   39  A    between atoms: _92  and  _93
REMARK   40  A    between atoms: _92  and  _95
REMARK   41  A    between atoms: _95  and  _96
REMARK   42  A    between atoms: _96  and  _97
REMARK   43  A    between atoms: _100  and  _102
REMARK   44  A    between atoms: _102  and  _103
REMARK   45  A    between atoms: _102  and  _105
REMARK   46  A    between atoms: _105  and  _106
REMARK   47  A    between atoms: _106  and  _107
REMARK   48  A    between atoms: _110  and  _112
REMARK   49  A    between atoms: _112  and  _113
REMARK   50  A    between atoms: _112  and  _115
REMARK   51  A    between atoms: _115  and  _116
REMARK   52  A    between atoms: _119  and  _121
REMARK   53  A    between atoms: _121  and  _122
REMARK   54  A    between atoms: _121  and  _124
REMARK   55  A    between atoms: _124  and  _125
REMARK   56  A    between atoms: _128  and  _130
REMARK   57  A    between atoms: _130  and  _131
REMARK   58  A    between atoms: _130  and  _133
REMARK   59  A    between atoms: _133  and  _134
REMARK   60  A    between atoms: _136  and  _138
REMARK   61  A    between atoms: _138  and  _139
REMARK   62  A    between atoms: _138  and  _141
REMARK   63  A    between atoms: _141  and  _142
REMARK   64  A    between atoms: _146  and  ZN_397
REMARK   65  A    between atoms: _147  and  _149
REMARK   66  A    between atoms: _149  and  _150
REMARK   67  A    between atoms: _152  and  _154
REMARK   68  A    between atoms: _154  and  _155
REMARK   69  A    between atoms: _158  and  _160
REMARK   70  A    between atoms: _160  and  _161
REMARK   71  A    between atoms: _160  and  _163
REMARK   72  A    between atoms: _163  and  _164
REMARK   73  A    between atoms: _169  and  _170
REMARK   74  A    between atoms: _172  and  _174
REMARK   75  A    between atoms: _174  and  _175
REMARK   76  A    between atoms: _174  and  _177
REMARK   77  A    between atoms: _177  and  _178
REMARK   78  A    between atoms: _178  and  _179
REMARK   79  A    between atoms: _179  and  _180
REMARK   80  A    between atoms: _180  and  _181
REMARK   81  A    between atoms: _185  and  _187
REMARK   82  A    between atoms: _187  and  _188
REMARK   83  A    between atoms: _187  and  _190
REMARK   84  A    between atoms: _193  and  _195
REMARK   85  A    between atoms: _195  and  _196
REMARK   86  A    between atoms: _195  and  _198
REMARK   87  A    between atoms: _198  and  _199
REMARK   88  A    between atoms: _199  and  _200
REMARK   89  A    between atoms: _202  and  _204
REMARK   90  A    between atoms: _204  and  _205
REMARK   91  A    between atoms: _204  and  _207
REMARK   92  A    between atoms: _207  and  _208
REMARK   93  A    between atoms: _209  and  ZN_397
REMARK   94  A    between atoms: _213  and  _215
REMARK   95  A    between atoms: _215  and  _216
REMARK   96  A    between atoms: _218  and  _220
REMARK   97  A    between atoms: _220  and  _221
REMARK   98  A    between atoms: _220  and  _223
REMARK   99  A    between atoms: _223  and  _224
REMARK  100  A    between atoms: _226  and  _228
REMARK  101  A    between atoms: _228  and  _229
REMARK  102  A    between atoms: _228  and  _231
REMARK  103  A    between atoms: _231  and  _232
REMARK  104  A    between atoms: _234  and  _236
REMARK  105  A    between atoms: _236  and  _237
REMARK  106  A    between atoms: _236  and  _239
REMARK  107  A    between atoms: _239  and  _240
REMARK  108  A    between atoms: _242  and  _244
REMARK  109  A    between atoms: _244  and  _245
REMARK  110  A    between atoms: _244  and  _247
REMARK  111  A    between atoms: _250  and  _252
REMARK  112  A    between atoms: _252  and  _253
REMARK  113  A    between atoms: _252  and  _255
REMARK  114  A    between atoms: _258  and  _260
REMARK  115  A    between atoms: _260  and  _261
REMARK  116  A    between atoms: _263  and  _265
REMARK  117  A    between atoms: _265  and  _266
REMARK  118  A    between atoms: _265  and  _268
REMARK  119  A    between atoms: _271  and  _273
REMARK  120  A    between atoms: _273  and  _274
REMARK  121  A    between atoms: _273  and  _276
REMARK  122  A    between atoms: _276  and  _277
REMARK  123  A    between atoms: _277  and  _278
REMARK  124  A    between atoms: _278  and  _279
REMARK  125  A    between atoms: _279  and  _280
REMARK  126  A    between atoms: _284  and  _286
REMARK  127  A    between atoms: _286  and  _287
REMARK  128  A    between atoms: _286  and  _289
REMARK  129  A    between atoms: _289  and  _290
REMARK  130  A    between atoms: _293  and  _295
REMARK  131  A    between atoms: _295  and  _296
REMARK  132  A    between atoms: _295  and  _298
REMARK  133  A    between atoms: _298  and  _299
REMARK  134  A    between atoms: _304  and  _306
REMARK  135  A    between atoms: _306  and  _307
REMARK  136  A    between atoms: _306  and  _309
REMARK  137  A    between atoms: _312  and  _314
REMARK  138  A    between atoms: _314  and  _315
REMARK  139  A    between atoms: _314  and  _317
REMARK  140  A    between atoms: _317  and  _318
REMARK  141  A    between atoms: _321  and  _323
REMARK  142  A    between atoms: _323  and  _324
REMARK  143  A    between atoms: _323  and  _326
REMARK  144  A    between atoms: _326  and  _327
REMARK  145  A    between atoms: _329  and  _331
REMARK  146  A    between atoms: _331  and  _332
REMARK  147  A    between atoms: _331  and  _334
REMARK  148  A    between atoms: _334  and  _335
REMARK  149  A    between atoms: _338  and  _340
REMARK  150  A    between atoms: _340  and  _341
REMARK  151  A    between atoms: _340  and  _343
REMARK  152  A    between atoms: _343  and  _344
REMARK  153  A    between atoms: _346  and  _348
REMARK  154  A    between atoms: _348  and  _349
REMARK  155  A    between atoms: _348  and  _351
REMARK  156  A    between atoms: _351  and  _352
REMARK  157  A    between atoms: _352  and  _353
REMARK  158  A    between atoms: _353  and  _354
REMARK  159  A    between atoms: _363  and  _365
REMARK  160  A    between atoms: _365  and  _366
REMARK  161  A    between atoms: _365  and  _368
REMARK  162  A    between atoms: _368  and  _369
REMARK  163  A    between atoms: _369  and  _370
REMARK  164  A    between atoms: _372  and  _374
REMARK  165  A    between atoms: _374  and  _375
REMARK  166  A    between atoms: _374  and  _377
REMARK  167  A    between atoms: _377  and  _378
REMARK  168  A    between atoms: _378  and  _379
REMARK  169  A    between atoms: _379  and  _380
REMARK  170  A    between atoms: _380  and  _381
REMARK  171  A    between atoms: _385  and  _387
REMARK  172  A    between atoms: _387  and  _388
REMARK  173  A    between atoms: _387  and  _390
REMARK  174  A    between atoms: _390  and  _391
REMARK                            x       y       z     vdW  Elec       q    Type
REMARK                         _______ _______ _______ _____ _____    ______ ____
ROOT
ATOM      1  O   HOH     1     -23.298   7.443  61.415  0.00  0.00    +0.000 OA
ENDROOT
TORSDOF 0
REMARK  Name = ../refined-set-2016/2isw/2isw_pocket.pdb
REMARK  174 active torsions:
REMARK  status: ('A' for Active; 'I' for Inactive)
REMARK    1  A    between atoms: _1  and  _3
REMARK    2  A    between atoms: _3  and  _4
REMARK    3  A    between atoms: _7  and  _9
REMARK    4  A    between atoms: _9  and  _10
REMARK    5  A    between atoms: _9  and  _12
REMARK    6  A    between atoms: _12  and  _13
REMARK    7  A    between atoms: _19  and  _21
REMARK    8  A    between atoms: _21  and  _22
REMARK    9  A    between atoms: _21  and  _24
REMARK   10  A    between atoms: _24  and  _25
REMARK   11  A    between atoms: _30  and  _32
REMARK   12  A    between atoms: _32  and  _33
REMARK   13  A    between atoms: _32  and  _35
REMARK   14  A    between atoms: _35  and  _36
REMARK   15  A    between atoms: _36  and  _37
REMARK   16  A    between atoms: _42  and  _44
REMARK   17  A    between atoms: _44  and  _45
REMARK   18  A    between atoms: _44  and  _47
REMARK   19  A    between atoms: _47  and  _48
REMARK   20  A    between atoms: _50  and  _52
REMARK   21  A    between atoms: _52  and  _53
REMARK   22  A    between atoms: _52  and  _55
REMARK   23  A    between atoms: _55  and  _56
REMARK   24  A    between atoms: _61  and  _63
REMARK   25  A    between atoms: _63  and  _64
REMARK   26  A    between atoms: _63  and  _66
REMARK   27  A    between atoms: _66  and  _67
REMARK   28  A    between atoms: _70  and  _72
REMARK   29  A    between atoms: _72  and  _73
REMARK   30  A    between atoms: _72  and  _75
REMARK   31  A    between atoms: _75  and  _76
REMARK   32  A    between atoms: _80  and  ZN_397
REMARK   33  A    between atoms: _81  and  _83
REMARK   34  A    between atoms: _83  and  _84
REMARK   35  A    between atoms: _83  and  _86
REMARK   36  A    between atoms: _86  and  _87
REMARK   37  A    between atoms: _87  and  _88
REMARK   38  A    between atoms: _90  and  _92
REMARK   39  A    between atoms: _92  and  _93
REMARK   40  A    between atoms: _92  and  _95
REMARK   41  A    between atoms: _95  and  _96
REMARK   42  A    between atoms: _96  and  _97
REMARK   43  A    between atoms: _100  and  _102
REMARK   44  A    between atoms: _102  and  _103
REMARK   45  A    between atoms: _102  and  _105
REMARK   46  A    between atoms: _105  and  _106
REMARK   47  A    between atoms: _106  and  _107
REMARK   48  A    between atoms: _110  and  _112
REMARK   49  A    between atoms: _112  and  _113
REMARK   50  A    between atoms: _112  and  _115
REMARK   51  A    between atoms: _115  and  _116
REMARK   52  A    between atoms: _119  and  _121
REMARK   53  A    between atoms: _121  and  _122
REMARK   54  A    between atoms: _121  and  _124
REMARK   55  A    between atoms: _124  and  _125
REMARK   56  A    between atoms: _128  and  _130
REMARK   57  A    between atoms: _130  and  _131
REMARK   58  A    between atoms: _130  and  _133
REMARK   59  A    between atoms: _133  and  _134
REMARK   60  A    between atoms: _136  and  _138
REMARK   61  A    between atoms: _138  and  _139
REMARK   62  A    between atoms: _138  and  _141
REMARK   63  A    between atoms: _141  and  _142
REMARK   64  A    between atoms: _146  and  ZN_397
REMARK   65  A    between atoms: _147  and  _149
REMARK   66  A    between atoms: _149  and  _150
REMARK   67  A    between atoms: _152  and  _154
REMARK   68  A    between atoms: _154  and  _155
REMARK   69  A    between atoms: _158  and  _160
REMARK   70  A    between atoms: _160  and  _161
REMARK   71  A    between atoms: _160  and  _163
REMARK   72  A    between atoms: _163  and  _164
REMARK   73  A    between atoms: _169  and  _170
REMARK   74  A    between atoms: _172  and  _174
REMARK   75  A    between atoms: _174  and  _175
REMARK   76  A    between atoms: _174  and  _177
REMARK   77  A    between atoms: _177  and  _178
REMARK   78  A    between atoms: _178  and  _179
REMARK   79  A    between atoms: _179  and  _180
REMARK   80  A    between atoms: _180  and  _181
REMARK   81  A    between atoms: _185  and  _187
REMARK   82  A    between atoms: _187  and  _188
REMARK   83  A    between atoms: _187  and  _190
REMARK   84  A    between atoms: _193  and  _195
REMARK   85  A    between atoms: _195  and  _196
REMARK   86  A    between atoms: _195  and  _198
REMARK   87  A    between atoms: _198  and  _199
REMARK   88  A    between atoms: _199  and  _200
REMARK   89  A    between atoms: _202  and  _204
REMARK   90  A    between atoms: _204  and  _205
REMARK   91  A    between atoms: _204  and  _207
REMARK   92  A    between atoms: _207  and  _208
REMARK   93  A    between atoms: _209  and  ZN_397
REMARK   94  A    between atoms: _213  and  _215
REMARK   95  A    between atoms: _215  and  _216
REMARK   96  A    between atoms: _218  and  _220
REMARK   97  A    between atoms: _220  and  _221
REMARK   98  A    between atoms: _220  and  _223
REMARK   99  A    between atoms: _223  and  _224
REMARK  100  A    between atoms: _226  and  _228
REMARK  101  A    between atoms: _228  and  _229
REMARK  102  A    between atoms: _228  and  _231
REMARK  103  A    between atoms: _231  and  _232
REMARK  104  A    between atoms: _234  and  _236
REMARK  105  A    between atoms: _236  and  _237
REMARK  106  A    between atoms: _236  and  _239
REMARK  107  A    between atoms: _239  and  _240
REMARK  108  A    between atoms: _242  and  _244
REMARK  109  A    between atoms: _244  and  _245
REMARK  110  A    between atoms: _244  and  _247
REMARK  111  A    between atoms: _250  and  _252
REMARK  112  A    between atoms: _252  and  _253
REMARK  113  A    between atoms: _252  and  _255
REMARK  114  A    between atoms: _258  and  _260
REMARK  115  A    between atoms: _260  and  _261
REMARK  116  A    between atoms: _263  and  _265
REMARK  117  A    between atoms: _265  and  _266
REMARK  118  A    between atoms: _265  and  _268
REMARK  119  A    between atoms: _271  and  _273
REMARK  120  A    between atoms: _273  and  _274
REMARK  121  A    between atoms: _273  and  _276
REMARK  122  A    between atoms: _276  and  _277
REMARK  123  A    between atoms: _277  and  _278
REMARK  124  A    between atoms: _278  and  _279
REMARK  125  A    between atoms: _279  and  _280
REMARK  126  A    between atoms: _284  and  _286
REMARK  127  A    between atoms: _286  and  _287
REMARK  128  A    between atoms: _286  and  _289
REMARK  129  A    between atoms: _289  and  _290
REMARK  130  A    between atoms: _293  and  _295
REMARK  131  A    between atoms: _295  and  _296
REMARK  132  A    between atoms: _295  and  _298
REMARK  133  A    between atoms: _298  and  _299
REMARK  134  A    between atoms: _304  and  _306
REMARK  135  A    between atoms: _306  and  _307
REMARK  136  A    between atoms: _306  and  _309
REMARK  137  A    between atoms: _312  and  _314
REMARK  138  A    between atoms: _314  and  _315
REMARK  139  A    between atoms: _314  and  _317
REMARK  140  A    between atoms: _317  and  _318
REMARK  141  A    between atoms: _321  and  _323
REMARK  142  A    between atoms: _323  and  _324
REMARK  143  A    between atoms: _323  and  _326
REMARK  144  A    between atoms: _326  and  _327
REMARK  145  A    between atoms: _329  and  _331
REMARK  146  A    between atoms: _331  and  _332
REMARK  147  A    between atoms: _331  and  _334
REMARK  148  A    between atoms: _334  and  _335
REMARK  149  A    between atoms: _338  and  _340
REMARK  150  A    between atoms: _340  and  _341
REMARK  151  A    between atoms: _340  and  _343
REMARK  152  A    between atoms: _343  and  _344
REMARK  153  A    between atoms: _346  and  _348
REMARK  154  A    between atoms: _348  and  _349
REMARK  155  A    between atoms: _348  and  _351
REMARK  156  A    between atoms: _351  and  _352
REMARK  157  A    between atoms: _352  and  _353
REMARK  158  A    between atoms: _353  and  _354
REMARK  159  A    between atoms: _363  and  _365
REMARK  160  A    between atoms: _365  and  _366
REMARK  161  A    between atoms: _365  and  _368
REMARK  162  A    between atoms: _368  and  _369
REMARK  163  A    between atoms: _369  and  _370
REMARK  164  A    between atoms: _372  and  _374
REMARK  165  A    between atoms: _374  and  _375
REMARK  166  A    between atoms: _374  and  _377
REMARK  167  A    between atoms: _377  and  _378
REMARK  168  A    between atoms: _378  and  _379
REMARK  169  A    between atoms: _379  and  _380
REMARK  170  A    between atoms: _380  and  _381
REMARK  171  A    between atoms: _385  and  _387
REMARK  172  A    between atoms: _387  and  _388
REMARK  173  A    between atoms: _387  and  _390
REMARK  174  A    between atoms: _390  and  _391
REMARK                            x       y       z     vdW  Elec       q    Type
REMARK                         _______ _______ _______ _____ _____    ______ ____
ROOT
ATOM      1  O   HOH     1     -27.089   8.551  61.917  0.00  0.00    +0.000 OA
ENDROOT
TORSDOF 0
REMARK  Name = ../refined-set-2016/2isw/2isw_pocket.pdb
REMARK  174 active torsions:
REMARK  status: ('A' for Active; 'I' for Inactive)
REMARK    1  A    between atoms: _1  and  _3
REMARK    2  A    between atoms: _3  and  _4
REMARK    3  A    between atoms: _7  and  _9
REMARK    4  A    between atoms: _9  and  _10
REMARK    5  A    between atoms: _9  and  _12
REMARK    6  A    between atoms: _12  and  _13
REMARK    7  A    between atoms: _19  and  _21
REMARK    8  A    between atoms: _21  and  _22
REMARK    9  A    between atoms: _21  and  _24
REMARK   10  A    between atoms: _24  and  _25
REMARK   11  A    between atoms: _30  and  _32
REMARK   12  A    between atoms: _32  and  _33
REMARK   13  A    between atoms: _32  and  _35
REMARK   14  A    between atoms: _35  and  _36
REMARK   15  A    between atoms: _36  and  _37
REMARK   16  A    between atoms: _42  and  _44
REMARK   17  A    between atoms: _44  and  _45
REMARK   18  A    between atoms: _44  and  _47
REMARK   19  A    between atoms: _47  and  _48
REMARK   20  A    between atoms: _50  and  _52
REMARK   21  A    between atoms: _52  and  _53
REMARK   22  A    between atoms: _52  and  _55
REMARK   23  A    between atoms: _55  and  _56
REMARK   24  A    between atoms: _61  and  _63
REMARK   25  A    between atoms: _63  and  _64
REMARK   26  A    between atoms: _63  and  _66
REMARK   27  A    between atoms: _66  and  _67
REMARK   28  A    between atoms: _70  and  _72
REMARK   29  A    between atoms: _72  and  _73
REMARK   30  A    between atoms: _72  and  _75
REMARK   31  A    between atoms: _75  and  _76
REMARK   32  A    between atoms: _80  and  ZN_397
REMARK   33  A    between atoms: _81  and  _83
REMARK   34  A    between atoms: _83  and  _84
REMARK   35  A    between atoms: _83  and  _86
REMARK   36  A    between atoms: _86  and  _87
REMARK   37  A    between atoms: _87  and  _88
REMARK   38  A    between atoms: _90  and  _92
REMARK   39  A    between atoms: _92  and  _93
REMARK   40  A    between atoms: _92  and  _95
REMARK   41  A    between atoms: _95  and  _96
REMARK   42  A    between atoms: _96  and  _97
REMARK   43  A    between atoms: _100  and  _102
REMARK   44  A    between atoms: _102  and  _103
REMARK   45  A    between atoms: _102  and  _105
REMARK   46  A    between atoms: _105  and  _106
REMARK   47  A    between atoms: _106  and  _107
REMARK   48  A    between atoms: _110  and  _112
REMARK   49  A    between atoms: _112  and  _113
REMARK   50  A    between atoms: _112  and  _115
REMARK   51  A    between atoms: _115  and  _116
REMARK   52  A    between atoms: _119  and  _121
REMARK   53  A    between atoms: _121  and  _122
REMARK   54  A    between atoms: _121  and  _124
REMARK   55  A    between atoms: _124  and  _125
REMARK   56  A    between atoms: _128  and  _130
REMARK   57  A    between atoms: _130  and  _131
REMARK   58  A    between atoms: _130  and  _133
REMARK   59  A    between atoms: _133  and  _134
REMARK   60  A    between atoms: _136  and  _138
REMARK   61  A    between atoms: _138  and  _139
REMARK   62  A    between atoms: _138  and  _141
REMARK   63  A    between atoms: _141  and  _142
REMARK   64  A    between atoms: _146  and  ZN_397
REMARK   65  A    between atoms: _147  and  _149
REMARK   66  A    between atoms: _149  and  _150
REMARK   67  A    between atoms: _152  and  _154
REMARK   68  A    between atoms: _154  and  _155
REMARK   69  A    between atoms: _158  and  _160
REMARK   70  A    between atoms: _160  and  _161
REMARK   71  A    between atoms: _160  and  _163
REMARK   72  A    between atoms: _163  and  _164
REMARK   73  A    between atoms: _169  and  _170
REMARK   74  A    between atoms: _172  and  _174
REMARK   75  A    between atoms: _174  and  _175
REMARK   76  A    between atoms: _174  and  _177
REMARK   77  A    between atoms: _177  and  _178
REMARK   78  A    between atoms: _178  and  _179
REMARK   79  A    between atoms: _179  and  _180
REMARK   80  A    between atoms: _180  and  _181
REMARK   81  A    between atoms: _185  and  _187
REMARK   82  A    between atoms: _187  and  _188
REMARK   83  A    between atoms: _187  and  _190
REMARK   84  A    between atoms: _193  and  _195
REMARK   85  A    between atoms: _195  and  _196
REMARK   86  A    between atoms: _195  and  _198
REMARK   87  A    between atoms: _198  and  _199
REMARK   88  A    between atoms: _199  and  _200
REMARK   89  A    between atoms: _202  and  _204
REMARK   90  A    between atoms: _204  and  _205
REMARK   91  A    between atoms: _204  and  _207
REMARK   92  A    between atoms: _207  and  _208
REMARK   93  A    between atoms: _209  and  ZN_397
REMARK   94  A    between atoms: _213  and  _215
REMARK   95  A    between atoms: _215  and  _216
REMARK   96  A    between atoms: _218  and  _220
REMARK   97  A    between atoms: _220  and  _221
REMARK   98  A    between atoms: _220  and  _223
REMARK   99  A    between atoms: _223  and  _224
REMARK  100  A    between atoms: _226  and  _228
REMARK  101  A    between atoms: _228  and  _229
REMARK  102  A    between atoms: _228  and  _231
REMARK  103  A    between atoms: _231  and  _232
REMARK  104  A    between atoms: _234  and  _236
REMARK  105  A    between atoms: _236  and  _237
REMARK  106  A    between atoms: _236  and  _239
REMARK  107  A    between atoms: _239  and  _240
REMARK  108  A    between atoms: _242  and  _244
REMARK  109  A    between atoms: _244  and  _245
REMARK  110  A    between atoms: _244  and  _247
REMARK  111  A    between atoms: _250  and  _252
REMARK  112  A    between atoms: _252  and  _253
REMARK  113  A    between atoms: _252  and  _255
REMARK  114  A    between atoms: _258  and  _260
REMARK  115  A    between atoms: _260  and  _261
REMARK  116  A    between atoms: _263  and  _265
REMARK  117  A    between atoms: _265  and  _266
REMARK  118  A    between atoms: _265  and  _268
REMARK  119  A    between atoms: _271  and  _273
REMARK  120  A    between atoms: _273  and  _274
REMARK  121  A    between atoms: _273  and  _276
REMARK  122  A    between atoms: _276  and  _277
REMARK  123  A    between atoms: _277  and  _278
REMARK  124  A    between atoms: _278  and  _279
REMARK  125  A    between atoms: _279  and  _280
REMARK  126  A    between atoms: _284  and  _286
REMARK  127  A    between atoms: _286  and  _287
REMARK  128  A    between atoms: _286  and  _289
REMARK  129  A    between atoms: _289  and  _290
REMARK  130  A    between atoms: _293  and  _295
REMARK  131  A    between atoms: _295  and  _296
REMARK  132  A    between atoms: _295  and  _298
REMARK  133  A    between atoms: _298  and  _299
REMARK  134  A    between atoms: _304  and  _306
REMARK  135  A    between atoms: _306  and  _307
REMARK  136  A    between atoms: _306  and  _309
REMARK  137  A    between atoms: _312  and  _314
REMARK  138  A    between atoms: _314  and  _315
REMARK  139  A    between atoms: _314  and  _317
REMARK  140  A    between atoms: _317  and  _318
REMARK  141  A    between atoms: _321  and  _323
REMARK  142  A    between atoms: _323  and  _324
REMARK  143  A    between atoms: _323  and  _326
REMARK  144  A    between atoms: _326  and  _327
REMARK  145  A    between atoms: _329  and  _331
REMARK  146  A    between atoms: _331  and  _332
REMARK  147  A    between atoms: _331  and  _334
REMARK  148  A    between atoms: _334  and  _335
REMARK  149  A    between atoms: _338  and  _340
REMARK  150  A    between atoms: _340  and  _341
REMARK  151  A    between atoms: _340  and  _343
REMARK  152  A    between atoms: _343  and  _344
REMARK  153  A    between atoms: _346  and  _348
REMARK  154  A    between atoms: _348  and  _349
REMARK  155  A    between atoms: _348  and  _351
REMARK  156  A    between atoms: _351  and  _352
REMARK  157  A    between atoms: _352  and  _353
REMARK  158  A    between atoms: _353  and  _354
REMARK  159  A    between atoms: _363  and  _365
REMARK  160  A    between atoms: _365  and  _366
REMARK  161  A    between atoms: _365  and  _368
REMARK  162  A    between atoms: _368  and  _369
REMARK  163  A    between atoms: _369  and  _370
REMARK  164  A    between atoms: _372  and  _374
REMARK  165  A    between atoms: _374  and  _375
REMARK  166  A    between atoms: _374  and  _377
REMARK  167  A    between atoms: _377  and  _378
REMARK  168  A    between atoms: _378  and  _379
REMARK  169  A    between atoms: _379  and  _380
REMARK  170  A    between atoms: _380  and  _381
REMARK  171  A    between atoms: _385  and  _387
REMARK  172  A    between atoms: _387  and  _388
REMARK  173  A    between atoms: _387  and  _390
REMARK  174  A    between atoms: _390  and  _391
REMARK                            x       y       z     vdW  Elec       q    Type
REMARK                         _______ _______ _______ _____ _____    ______ ____
ROOT
ATOM      1  O   HOH     1     -26.458  22.426  61.457  0.00  0.00    +0.000 OA
ENDROOT
TORSDOF 0
REMARK  Name = ../refined-set-2016/2isw/2isw_pocket.pdb
REMARK  174 active torsions:
REMARK  status: ('A' for Active; 'I' for Inactive)
REMARK    1  A    between atoms: _1  and  _3
REMARK    2  A    between atoms: _3  and  _4
REMARK    3  A    between atoms: _7  and  _9
REMARK    4  A    between atoms: _9  and  _10
REMARK    5  A    between atoms: _9  and  _12
REMARK    6  A    between atoms: _12  and  _13
REMARK    7  A    between atoms: _19  and  _21
REMARK    8  A    between atoms: _21  and  _22
REMARK    9  A    between atoms: _21  and  _24
REMARK   10  A    between atoms: _24  and  _25
REMARK   11  A    between atoms: _30  and  _32
REMARK   12  A    between atoms: _32  and  _33
REMARK   13  A    between atoms: _32  and  _35
REMARK   14  A    between atoms: _35  and  _36
REMARK   15  A    between atoms: _36  and  _37
REMARK   16  A    between atoms: _42  and  _44
REMARK   17  A    between atoms: _44  and  _45
REMARK   18  A    between atoms: _44  and  _47
REMARK   19  A    between atoms: _47  and  _48
REMARK   20  A    between atoms: _50  and  _52
REMARK   21  A    between atoms: _52  and  _53
REMARK   22  A    between atoms: _52  and  _55
REMARK   23  A    between atoms: _55  and  _56
REMARK   24  A    between atoms: _61  and  _63
REMARK   25  A    between atoms: _63  and  _64
REMARK   26  A    between atoms: _63  and  _66
REMARK   27  A    between atoms: _66  and  _67
REMARK   28  A    between atoms: _70  and  _72
REMARK   29  A    between atoms: _72  and  _73
REMARK   30  A    between atoms: _72  and  _75
REMARK   31  A    between atoms: _75  and  _76
REMARK   32  A    between atoms: _80  and  ZN_397
REMARK   33  A    between atoms: _81  and  _83
REMARK   34  A    between atoms: _83  and  _84
REMARK   35  A    between atoms: _83  and  _86
REMARK   36  A    between atoms: _86  and  _87
REMARK   37  A    between atoms: _87  and  _88
REMARK   38  A    between atoms: _90  and  _92
REMARK   39  A    between atoms: _92  and  _93
REMARK   40  A    between atoms: _92  and  _95
REMARK   41  A    between atoms: _95  and  _96
REMARK   42  A    between atoms: _96  and  _97
REMARK   43  A    between atoms: _100  and  _102
REMARK   44  A    between atoms: _102  and  _103
REMARK   45  A    between atoms: _102  and  _105
REMARK   46  A    between atoms: _105  and  _106
REMARK   47  A    between atoms: _106  and  _107
REMARK   48  A    between atoms: _110  and  _112
REMARK   49  A    between atoms: _112  and  _113
REMARK   50  A    between atoms: _112  and  _115
REMARK   51  A    between atoms: _115  and  _116
REMARK   52  A    between atoms: _119  and  _121
REMARK   53  A    between atoms: _121  and  _122
REMARK   54  A    between atoms: _121  and  _124
REMARK   55  A    between atoms: _124  and  _125
REMARK   56  A    between atoms: _128  and  _130
REMARK   57  A    between atoms: _130  and  _131
REMARK   58  A    between atoms: _130  and  _133
REMARK   59  A    between atoms: _133  and  _134
REMARK   60  A    between atoms: _136  and  _138
REMARK   61  A    between atoms: _138  and  _139
REMARK   62  A    between atoms: _138  and  _141
REMARK   63  A    between atoms: _141  and  _142
REMARK   64  A    between atoms: _146  and  ZN_397
REMARK   65  A    between atoms: _147  and  _149
REMARK   66  A    between atoms: _149  and  _150
REMARK   67  A    between atoms: _152  and  _154
REMARK   68  A    between atoms: _154  and  _155
REMARK   69  A    between atoms: _158  and  _160
REMARK   70  A    between atoms: _160  and  _161
REMARK   71  A    between atoms: _160  and  _163
REMARK   72  A    between atoms: _163  and  _164
REMARK   73  A    between atoms: _169  and  _170
REMARK   74  A    between atoms: _172  and  _174
REMARK   75  A    between atoms: _174  and  _175
REMARK   76  A    between atoms: _174  and  _177
REMARK   77  A    between atoms: _177  and  _178
REMARK   78  A    between atoms: _178  and  _179
REMARK   79  A    between atoms: _179  and  _180
REMARK   80  A    between atoms: _180  and  _181
REMARK   81  A    between atoms: _185  and  _187
REMARK   82  A    between atoms: _187  and  _188
REMARK   83  A    between atoms: _187  and  _190
REMARK   84  A    between atoms: _193  and  _195
REMARK   85  A    between atoms: _195  and  _196
REMARK   86  A    between atoms: _195  and  _198
REMARK   87  A    between atoms: _198  and  _199
REMARK   88  A    between atoms: _199  and  _200
REMARK   89  A    between atoms: _202  and  _204
REMARK   90  A    between atoms: _204  and  _205
REMARK   91  A    between atoms: _204  and  _207
REMARK   92  A    between atoms: _207  and  _208
REMARK   93  A    between atoms: _209  and  ZN_397
REMARK   94  A    between atoms: _213  and  _215
REMARK   95  A    between atoms: _215  and  _216
REMARK   96  A    between atoms: _218  and  _220
REMARK   97  A    between atoms: _220  and  _221
REMARK   98  A    between atoms: _220  and  _223
REMARK   99  A    between atoms: _223  and  _224
REMARK  100  A    between atoms: _226  and  _228
REMARK  101  A    between atoms: _228  and  _229
REMARK  102  A    between atoms: _228  and  _231
REMARK  103  A    between atoms: _231  and  _232
REMARK  104  A    between atoms: _234  and  _236
REMARK  105  A    between atoms: _236  and  _237
REMARK  106  A    between atoms: _236  and  _239
REMARK  107  A    between atoms: _239  and  _240
REMARK  108  A    between atoms: _242  and  _244
REMARK  109  A    between atoms: _244  and  _245
REMARK  110  A    between atoms: _244  and  _247
REMARK  111  A    between atoms: _250  and  _252
REMARK  112  A    between atoms: _252  and  _253
REMARK  113  A    between atoms: _252  and  _255
REMARK  114  A    between atoms: _258  and  _260
REMARK  115  A    between atoms: _260  and  _261
REMARK  116  A    between atoms: _263  and  _265
REMARK  117  A    between atoms: _265  and  _266
REMARK  118  A    between atoms: _265  and  _268
REMARK  119  A    between atoms: _271  and  _273
REMARK  120  A    between atoms: _273  and  _274
REMARK  121  A    between atoms: _273  and  _276
REMARK  122  A    between atoms: _276  and  _277
REMARK  123  A    between atoms: _277  and  _278
REMARK  124  A    between atoms: _278  and  _279
REMARK  125  A    between atoms: _279  and  _280
REMARK  126  A    between atoms: _284  and  _286
REMARK  127  A    between atoms: _286  and  _287
REMARK  128  A    between atoms: _286  and  _289
REMARK  129  A    between atoms: _289  and  _290
REMARK  130  A    between atoms: _293  and  _295
REMARK  131  A    between atoms: _295  and  _296
REMARK  132  A    between atoms: _295  and  _298
REMARK  133  A    between atoms: _298  and  _299
REMARK  134  A    between atoms: _304  and  _306
REMARK  135  A    between atoms: _306  and  _307
REMARK  136  A    between atoms: _306  and  _309
REMARK  137  A    between atoms: _312  and  _314
REMARK  138  A    between atoms: _314  and  _315
REMARK  139  A    between atoms: _314  and  _317
REMARK  140  A    between atoms: _317  and  _318
REMARK  141  A    between atoms: _321  and  _323
REMARK  142  A    between atoms: _323  and  _324
REMARK  143  A    between atoms: _323  and  _326
REMARK  144  A    between atoms: _326  and  _327
REMARK  145  A    between atoms: _329  and  _331
REMARK  146  A    between atoms: _331  and  _332
REMARK  147  A    between atoms: _331  and  _334
REMARK  148  A    between atoms: _334  and  _335
REMARK  149  A    between atoms: _338  and  _340
REMARK  150  A    between atoms: _340  and  _341
REMARK  151  A    between atoms: _340  and  _343
REMARK  152  A    between atoms: _343  and  _344
REMARK  153  A    between atoms: _346  and  _348
REMARK  154  A    between atoms: _348  and  _349
REMARK  155  A    between atoms: _348  and  _351
REMARK  156  A    between atoms: _351  and  _352
REMARK  157  A    between atoms: _352  and  _353
REMARK  158  A    between atoms: _353  and  _354
REMARK  159  A    between atoms: _363  and  _365
REMARK  160  A    between atoms: _365  and  _366
REMARK  161  A    between atoms: _365  and  _368
REMARK  162  A    between atoms: _368  and  _369
REMARK  163  A    between atoms: _369  and  _370
REMARK  164  A    between atoms: _372  and  _374
REMARK  165  A    between atoms: _374  and  _375
REMARK  166  A    between atoms: _374  and  _377
REMARK  167  A    between atoms: _377  and  _378
REMARK  168  A    between atoms: _378  and  _379
REMARK  169  A    between atoms: _379  and  _380
REMARK  170  A    between atoms: _380  and  _381
REMARK  171  A    between atoms: _385  and  _387
REMARK  172  A    between atoms: _387  and  _388
REMARK  173  A    between atoms: _387  and  _390
REMARK  174  A    between atoms: _390  and  _391
REMARK                            x       y       z     vdW  Elec       q    Type
REMARK                         _______ _______ _______ _____ _____    ______ ____
ROOT
ATOM      1  O   HOH     1     -34.108  17.068  63.179  0.00  0.00    +0.000 OA
ENDROOT
TORSDOF 0
REMARK  Name = ../refined-set-2016/2isw/2isw_pocket.pdb
REMARK  174 active torsions:
REMARK  status: ('A' for Active; 'I' for Inactive)
REMARK    1  A    between atoms: _1  and  _3
REMARK    2  A    between atoms: _3  and  _4
REMARK    3  A    between atoms: _7  and  _9
REMARK    4  A    between atoms: _9  and  _10
REMARK    5  A    between atoms: _9  and  _12
REMARK    6  A    between atoms: _12  and  _13
REMARK    7  A    between atoms: _19  and  _21
REMARK    8  A    between atoms: _21  and  _22
REMARK    9  A    between atoms: _21  and  _24
REMARK   10  A    between atoms: _24  and  _25
REMARK   11  A    between atoms: _30  and  _32
REMARK   12  A    between atoms: _32  and  _33
REMARK   13  A    between atoms: _32  and  _35
REMARK   14  A    between atoms: _35  and  _36
REMARK   15  A    between atoms: _36  and  _37
REMARK   16  A    between atoms: _42  and  _44
REMARK   17  A    between atoms: _44  and  _45
REMARK   18  A    between atoms: _44  and  _47
REMARK   19  A    between atoms: _47  and  _48
REMARK   20  A    between atoms: _50  and  _52
REMARK   21  A    between atoms: _52  and  _53
REMARK   22  A    between atoms: _52  and  _55
REMARK   23  A    between atoms: _55  and  _56
REMARK   24  A    between atoms: _61  and  _63
REMARK   25  A    between atoms: _63  and  _64
REMARK   26  A    between atoms: _63  and  _66
REMARK   27  A    between atoms: _66  and  _67
REMARK   28  A    between atoms: _70  and  _72
REMARK   29  A    between atoms: _72  and  _73
REMARK   30  A    between atoms: _72  and  _75
REMARK   31  A    between atoms: _75  and  _76
REMARK   32  A    between atoms: _80  and  ZN_397
REMARK   33  A    between atoms: _81  and  _83
REMARK   34  A    between atoms: _83  and  _84
REMARK   35  A    between atoms: _83  and  _86
REMARK   36  A    between atoms: _86  and  _87
REMARK   37  A    between atoms: _87  and  _88
REMARK   38  A    between atoms: _90  and  _92
REMARK   39  A    between atoms: _92  and  _93
REMARK   40  A    between atoms: _92  and  _95
REMARK   41  A    between atoms: _95  and  _96
REMARK   42  A    between atoms: _96  and  _97
REMARK   43  A    between atoms: _100  and  _102
REMARK   44  A    between atoms: _102  and  _103
REMARK   45  A    between atoms: _102  and  _105
REMARK   46  A    between atoms: _105  and  _106
REMARK   47  A    between atoms: _106  and  _107
REMARK   48  A    between atoms: _110  and  _112
REMARK   49  A    between atoms: _112  and  _113
REMARK   50  A    between atoms: _112  and  _115
REMARK   51  A    between atoms: _115  and  _116
REMARK   52  A    between atoms: _119  and  _121
REMARK   53  A    between atoms: _121  and  _122
REMARK   54  A    between atoms: _121  and  _124
REMARK   55  A    between atoms: _124  and  _125
REMARK   56  A    between atoms: _128  and  _130
REMARK   57  A    between atoms: _130  and  _131
REMARK   58  A    between atoms: _130  and  _133
REMARK   59  A    between atoms: _133  and  _134
REMARK   60  A    between atoms: _136  and  _138
REMARK   61  A    between atoms: _138  and  _139
REMARK   62  A    between atoms: _138  and  _141
REMARK   63  A    between atoms: _141  and  _142
REMARK   64  A    between atoms: _146  and  ZN_397
REMARK   65  A    between atoms: _147  and  _149
REMARK   66  A    between atoms: _149  and  _150
REMARK   67  A    between atoms: _152  and  _154
REMARK   68  A    between atoms: _154  and  _155
REMARK   69  A    between atoms: _158  and  _160
REMARK   70  A    between atoms: _160  and  _161
REMARK   71  A    between atoms: _160  and  _163
REMARK   72  A    between atoms: _163  and  _164
REMARK   73  A    between atoms: _169  and  _170
REMARK   74  A    between atoms: _172  and  _174
REMARK   75  A    between atoms: _174  and  _175
REMARK   76  A    between atoms: _174  and  _177
REMARK   77  A    between atoms: _177  and  _178
REMARK   78  A    between atoms: _178  and  _179
REMARK   79  A    between atoms: _179  and  _180
REMARK   80  A    between atoms: _180  and  _181
REMARK   81  A    between atoms: _185  and  _187
REMARK   82  A    between atoms: _187  and  _188
REMARK   83  A    between atoms: _187  and  _190
REMARK   84  A    between atoms: _193  and  _195
REMARK   85  A    between atoms: _195  and  _196
REMARK   86  A    between atoms: _195  and  _198
REMARK   87  A    between atoms: _198  and  _199
REMARK   88  A    between atoms: _199  and  _200
REMARK   89  A    between atoms: _202  and  _204
REMARK   90  A    between atoms: _204  and  _205
REMARK   91  A    between atoms: _204  and  _207
REMARK   92  A    between atoms: _207  and  _208
REMARK   93  A    between atoms: _209  and  ZN_397
REMARK   94  A    between atoms: _213  and  _215
REMARK   95  A    between atoms: _215  and  _216
REMARK   96  A    between atoms: _218  and  _220
REMARK   97  A    between atoms: _220  and  _221
REMARK   98  A    between atoms: _220  and  _223
REMARK   99  A    between atoms: _223  and  _224
REMARK  100  A    between atoms: _226  and  _228
REMARK  101  A    between atoms: _228  and  _229
REMARK  102  A    between atoms: _228  and  _231
REMARK  103  A    between atoms: _231  and  _232
REMARK  104  A    between atoms: _234  and  _236
REMARK  105  A    between atoms: _236  and  _237
REMARK  106  A    between atoms: _236  and  _239
REMARK  107  A    between atoms: _239  and  _240
REMARK  108  A    between atoms: _242  and  _244
REMARK  109  A    between atoms: _244  and  _245
REMARK  110  A    between atoms: _244  and  _247
REMARK  111  A    between atoms: _250  and  _252
REMARK  112  A    between atoms: _252  and  _253
REMARK  113  A    between atoms: _252  and  _255
REMARK  114  A    between atoms: _258  and  _260
REMARK  115  A    between atoms: _260  and  _261
REMARK  116  A    between atoms: _263  and  _265
REMARK  117  A    between atoms: _265  and  _266
REMARK  118  A    between atoms: _265  and  _268
REMARK  119  A    between atoms: _271  and  _273
REMARK  120  A    between atoms: _273  and  _274
REMARK  121  A    between atoms: _273  and  _276
REMARK  122  A    between atoms: _276  and  _277
REMARK  123  A    between atoms: _277  and  _278
REMARK  124  A    between atoms: _278  and  _279
REMARK  125  A    between atoms: _279  and  _280
REMARK  126  A    between atoms: _284  and  _286
REMARK  127  A    between atoms: _286  and  _287
REMARK  128  A    between atoms: _286  and  _289
REMARK  129  A    between atoms: _289  and  _290
REMARK  130  A    between atoms: _293  and  _295
REMARK  131  A    between atoms: _295  and  _296
REMARK  132  A    between atoms: _295  and  _298
REMARK  133  A    between atoms: _298  and  _299
REMARK  134  A    between atoms: _304  and  _306
REMARK  135  A    between atoms: _306  and  _307
REMARK  136  A    between atoms: _306  and  _309
REMARK  137  A    between atoms: _312  and  _314
REMARK  138  A    between atoms: _314  and  _315
REMARK  139  A    between atoms: _314  and  _317
REMARK  140  A    between atoms: _317  and  _318
REMARK  141  A    between atoms: _321  and  _323
REMARK  142  A    between atoms: _323  and  _324
REMARK  143  A    between atoms: _323  and  _326
REMARK  144  A    between atoms: _326  and  _327
REMARK  145  A    between atoms: _329  and  _331
REMARK  146  A    between atoms: _331  and  _332
REMARK  147  A    between atoms: _331  and  _334
REMARK  148  A    between atoms: _334  and  _335
REMARK  149  A    between atoms: _338  and  _340
REMARK  150  A    between atoms: _340  and  _341
REMARK  151  A    between atoms: _340  and  _343
REMARK  152  A    between atoms: _343  and  _344
REMARK  153  A    between atoms: _346  and  _348
REMARK  154  A    between atoms: _348  and  _349
REMARK  155  A    between atoms: _348  and  _351
REMARK  156  A    between atoms: _351  and  _352
REMARK  157  A    between atoms: _352  and  _353
REMARK  158  A    between atoms: _353  and  _354
REMARK  159  A    between atoms: _363  and  _365
REMARK  160  A    between atoms: _365  and  _366
REMARK  161  A    between atoms: _365  and  _368
REMARK  162  A    between atoms: _368  and  _369
REMARK  163  A    between atoms: _369  and  _370
REMARK  164  A    between atoms: _372  and  _374
REMARK  165  A    between atoms: _374  and  _375
REMARK  166  A    between atoms: _374  and  _377
REMARK  167  A    between atoms: _377  and  _378
REMARK  168  A    between atoms: _378  and  _379
REMARK  169  A    between atoms: _379  and  _380
REMARK  170  A    between atoms: _380  and  _381
REMARK  171  A    between atoms: _385  and  _387
REMARK  172  A    between atoms: _387  and  _388
REMARK  173  A    between atoms: _387  and  _390
REMARK  174  A    between atoms: _390  and  _391
REMARK                            x       y       z     vdW  Elec       q    Type
REMARK                         _______ _______ _______ _____ _____    ______ ____
ROOT
ATOM      1  O   HOH     1     -18.032  14.074  56.503  0.00  0.00    +0.000 OA
ENDROOT
TORSDOF 0
REMARK  Name = ../refined-set-2016/2isw/2isw_pocket.pdb
REMARK  174 active torsions:
REMARK  status: ('A' for Active; 'I' for Inactive)
REMARK    1  A    between atoms: _1  and  _3
REMARK    2  A    between atoms: _3  and  _4
REMARK    3  A    between atoms: _7  and  _9
REMARK    4  A    between atoms: _9  and  _10
REMARK    5  A    between atoms: _9  and  _12
REMARK    6  A    between atoms: _12  and  _13
REMARK    7  A    between atoms: _19  and  _21
REMARK    8  A    between atoms: _21  and  _22
REMARK    9  A    between atoms: _21  and  _24
REMARK   10  A    between atoms: _24  and  _25
REMARK   11  A    between atoms: _30  and  _32
REMARK   12  A    between atoms: _32  and  _33
REMARK   13  A    between atoms: _32  and  _35
REMARK   14  A    between atoms: _35  and  _36
REMARK   15  A    between atoms: _36  and  _37
REMARK   16  A    between atoms: _42  and  _44
REMARK   17  A    between atoms: _44  and  _45
REMARK   18  A    between atoms: _44  and  _47
REMARK   19  A    between atoms: _47  and  _48
REMARK   20  A    between atoms: _50  and  _52
REMARK   21  A    between atoms: _52  and  _53
REMARK   22  A    between atoms: _52  and  _55
REMARK   23  A    between atoms: _55  and  _56
REMARK   24  A    between atoms: _61  and  _63
REMARK   25  A    between atoms: _63  and  _64
REMARK   26  A    between atoms: _63  and  _66
REMARK   27  A    between atoms: _66  and  _67
REMARK   28  A    between atoms: _70  and  _72
REMARK   29  A    between atoms: _72  and  _73
REMARK   30  A    between atoms: _72  and  _75
REMARK   31  A    between atoms: _75  and  _76
REMARK   32  A    between atoms: _80  and  ZN_397
REMARK   33  A    between atoms: _81  and  _83
REMARK   34  A    between atoms: _83  and  _84
REMARK   35  A    between atoms: _83  and  _86
REMARK   36  A    between atoms: _86  and  _87
REMARK   37  A    between atoms: _87  and  _88
REMARK   38  A    between atoms: _90  and  _92
REMARK   39  A    between atoms: _92  and  _93
REMARK   40  A    between atoms: _92  and  _95
REMARK   41  A    between atoms: _95  and  _96
REMARK   42  A    between atoms: _96  and  _97
REMARK   43  A    between atoms: _100  and  _102
REMARK   44  A    between atoms: _102  and  _103
REMARK   45  A    between atoms: _102  and  _105
REMARK   46  A    between atoms: _105  and  _106
REMARK   47  A    between atoms: _106  and  _107
REMARK   48  A    between atoms: _110  and  _112
REMARK   49  A    between atoms: _112  and  _113
REMARK   50  A    between atoms: _112  and  _115
REMARK   51  A    between atoms: _115  and  _116
REMARK   52  A    between atoms: _119  and  _121
REMARK   53  A    between atoms: _121  and  _122
REMARK   54  A    between atoms: _121  and  _124
REMARK   55  A    between atoms: _124  and  _125
REMARK   56  A    between atoms: _128  and  _130
REMARK   57  A    between atoms: _130  and  _131
REMARK   58  A    between atoms: _130  and  _133
REMARK   59  A    between atoms: _133  and  _134
REMARK   60  A    between atoms: _136  and  _138
REMARK   61  A    between atoms: _138  and  _139
REMARK   62  A    between atoms: _138  and  _141
REMARK   63  A    between atoms: _141  and  _142
REMARK   64  A    between atoms: _146  and  ZN_397
REMARK   65  A    between atoms: _147  and  _149
REMARK   66  A    between atoms: _149  and  _150
REMARK   67  A    between atoms: _152  and  _154
REMARK   68  A    between atoms: _154  and  _155
REMARK   69  A    between atoms: _158  and  _160
REMARK   70  A    between atoms: _160  and  _161
REMARK   71  A    between atoms: _160  and  _163
REMARK   72  A    between atoms: _163  and  _164
REMARK   73  A    between atoms: _169  and  _170
REMARK   74  A    between atoms: _172  and  _174
REMARK   75  A    between atoms: _174  and  _175
REMARK   76  A    between atoms: _174  and  _177
REMARK   77  A    between atoms: _177  and  _178
REMARK   78  A    between atoms: _178  and  _179
REMARK   79  A    between atoms: _179  and  _180
REMARK   80  A    between atoms: _180  and  _181
REMARK   81  A    between atoms: _185  and  _187
REMARK   82  A    between atoms: _187  and  _188
REMARK   83  A    between atoms: _187  and  _190
REMARK   84  A    between atoms: _193  and  _195
REMARK   85  A    between atoms: _195  and  _196
REMARK   86  A    between atoms: _195  and  _198
REMARK   87  A    between atoms: _198  and  _199
REMARK   88  A    between atoms: _199  and  _200
REMARK   89  A    between atoms: _202  and  _204
REMARK   90  A    between atoms: _204  and  _205
REMARK   91  A    between atoms: _204  and  _207
REMARK   92  A    between atoms: _207  and  _208
REMARK   93  A    between atoms: _209  and  ZN_397
REMARK   94  A    between atoms: _213  and  _215
REMARK   95  A    between atoms: _215  and  _216
REMARK   96  A    between atoms: _218  and  _220
REMARK   97  A    between atoms: _220  and  _221
REMARK   98  A    between atoms: _220  and  _223
REMARK   99  A    between atoms: _223  and  _224
REMARK  100  A    between atoms: _226  and  _228
REMARK  101  A    between atoms: _228  and  _229
REMARK  102  A    between atoms: _228  and  _231
REMARK  103  A    between atoms: _231  and  _232
REMARK  104  A    between atoms: _234  and  _236
REMARK  105  A    between atoms: _236  and  _237
REMARK  106  A    between atoms: _236  and  _239
REMARK  107  A    between atoms: _239  and  _240
REMARK  108  A    between atoms: _242  and  _244
REMARK  109  A    between atoms: _244  and  _245
REMARK  110  A    between atoms: _244  and  _247
REMARK  111  A    between atoms: _250  and  _252
REMARK  112  A    between atoms: _252  and  _253
REMARK  113  A    between atoms: _252  and  _255
REMARK  114  A    between atoms: _258  and  _260
REMARK  115  A    between atoms: _260  and  _261
REMARK  116  A    between atoms: _263  and  _265
REMARK  117  A    between atoms: _265  and  _266
REMARK  118  A    between atoms: _265  and  _268
REMARK  119  A    between atoms: _271  and  _273
REMARK  120  A    between atoms: _273  and  _274
REMARK  121  A    between atoms: _273  and  _276
REMARK  122  A    between atoms: _276  and  _277
REMARK  123  A    between atoms: _277  and  _278
REMARK  124  A    between atoms: _278  and  _279
REMARK  125  A    between atoms: _279  and  _280
REMARK  126  A    between atoms: _284  and  _286
REMARK  127  A    between atoms: _286  and  _287
REMARK  128  A    between atoms: _286  and  _289
REMARK  129  A    between atoms: _289  and  _290
REMARK  130  A    between atoms: _293  and  _295
REMARK  131  A    between atoms: _295  and  _296
REMARK  132  A    between atoms: _295  and  _298
REMARK  133  A    between atoms: _298  and  _299
REMARK  134  A    between atoms: _304  and  _306
REMARK  135  A    between atoms: _306  and  _307
REMARK  136  A    between atoms: _306  and  _309
REMARK  137  A    between atoms: _312  and  _314
REMARK  138  A    between atoms: _314  and  _315
REMARK  139  A    between atoms: _314  and  _317
REMARK  140  A    between atoms: _317  and  _318
REMARK  141  A    between atoms: _321  and  _323
REMARK  142  A    between atoms: _323  and  _324
REMARK  143  A    between atoms: _323  and  _326
REMARK  144  A    between atoms: _326  and  _327
REMARK  145  A    between atoms: _329  and  _331
REMARK  146  A    between atoms: _331  and  _332
REMARK  147  A    between atoms: _331  and  _334
REMARK  148  A    between atoms: _334  and  _335
REMARK  149  A    between atoms: _338  and  _340
REMARK  150  A    between atoms: _340  and  _341
REMARK  151  A    between atoms: _340  and  _343
REMARK  152  A    between atoms: _343  and  _344
REMARK  153  A    between atoms: _346  and  _348
REMARK  154  A    between atoms: _348  and  _349
REMARK  155  A    between atoms: _348  and  _351
REMARK  156  A    between atoms: _351  and  _352
REMARK  157  A    between atoms: _352  and  _353
REMARK  158  A    between atoms: _353  and  _354
REMARK  159  A    between atoms: _363  and  _365
REMARK  160  A    between atoms: _365  and  _366
REMARK  161  A    between atoms: _365  and  _368
REMARK  162  A    between atoms: _368  and  _369
REMARK  163  A    between atoms: _369  and  _370
REMARK  164  A    between atoms: _372  and  _374
REMARK  165  A    between atoms: _374  and  _375
REMARK  166  A    between atoms: _374  and  _377
REMARK  167  A    between atoms: _377  and  _378
REMARK  168  A    between atoms: _378  and  _379
REMARK  169  A    between atoms: _379  and  _380
REMARK  170  A    between atoms: _380  and  _381
REMARK  171  A    between atoms: _385  and  _387
REMARK  172  A    between atoms: _387  and  _388
REMARK  173  A    between atoms: _387  and  _390
REMARK  174  A    between atoms: _390  and  _391
REMARK                            x       y       z     vdW  Elec       q    Type
REMARK                         _______ _______ _______ _____ _____    ______ ____
ROOT
ATOM      1  O   HOH     1     -20.558  21.937  61.360  0.00  0.00    +0.000 OA
ENDROOT
TORSDOF 0
REMARK  Name = ../refined-set-2016/2isw/2isw_pocket.pdb
REMARK  174 active torsions:
REMARK  status: ('A' for Active; 'I' for Inactive)
REMARK    1  A    between atoms: _1  and  _3
REMARK    2  A    between atoms: _3  and  _4
REMARK    3  A    between atoms: _7  and  _9
REMARK    4  A    between atoms: _9  and  _10
REMARK    5  A    between atoms: _9  and  _12
REMARK    6  A    between atoms: _12  and  _13
REMARK    7  A    between atoms: _19  and  _21
REMARK    8  A    between atoms: _21  and  _22
REMARK    9  A    between atoms: _21  and  _24
REMARK   10  A    between atoms: _24  and  _25
REMARK   11  A    between atoms: _30  and  _32
REMARK   12  A    between atoms: _32  and  _33
REMARK   13  A    between atoms: _32  and  _35
REMARK   14  A    between atoms: _35  and  _36
REMARK   15  A    between atoms: _36  and  _37
REMARK   16  A    between atoms: _42  and  _44
REMARK   17  A    between atoms: _44  and  _45
REMARK   18  A    between atoms: _44  and  _47
REMARK   19  A    between atoms: _47  and  _48
REMARK   20  A    between atoms: _50  and  _52
REMARK   21  A    between atoms: _52  and  _53
REMARK   22  A    between atoms: _52  and  _55
REMARK   23  A    between atoms: _55  and  _56
REMARK   24  A    between atoms: _61  and  _63
REMARK   25  A    between atoms: _63  and  _64
REMARK   26  A    between atoms: _63  and  _66
REMARK   27  A    between atoms: _66  and  _67
REMARK   28  A    between atoms: _70  and  _72
REMARK   29  A    between atoms: _72  and  _73
REMARK   30  A    between atoms: _72  and  _75
REMARK   31  A    between atoms: _75  and  _76
REMARK   32  A    between atoms: _80  and  ZN_397
REMARK   33  A    between atoms: _81  and  _83
REMARK   34  A    between atoms: _83  and  _84
REMARK   35  A    between atoms: _83  and  _86
REMARK   36  A    between atoms: _86  and  _87
REMARK   37  A    between atoms: _87  and  _88
REMARK   38  A    between atoms: _90  and  _92
REMARK   39  A    between atoms: _92  and  _93
REMARK   40  A    between atoms: _92  and  _95
REMARK   41  A    between atoms: _95  and  _96
REMARK   42  A    between atoms: _96  and  _97
REMARK   43  A    between atoms: _100  and  _102
REMARK   44  A    between atoms: _102  and  _103
REMARK   45  A    between atoms: _102  and  _105
REMARK   46  A    between atoms: _105  and  _106
REMARK   47  A    between atoms: _106  and  _107
REMARK   48  A    between atoms: _110  and  _112
REMARK   49  A    between atoms: _112  and  _113
REMARK   50  A    between atoms: _112  and  _115
REMARK   51  A    between atoms: _115  and  _116
REMARK   52  A    between atoms: _119  and  _121
REMARK   53  A    between atoms: _121  and  _122
REMARK   54  A    between atoms: _121  and  _124
REMARK   55  A    between atoms: _124  and  _125
REMARK   56  A    between atoms: _128  and  _130
REMARK   57  A    between atoms: _130  and  _131
REMARK   58  A    between atoms: _130  and  _133
REMARK   59  A    between atoms: _133  and  _134
REMARK   60  A    between atoms: _136  and  _138
REMARK   61  A    between atoms: _138  and  _139
REMARK   62  A    between atoms: _138  and  _141
REMARK   63  A    between atoms: _141  and  _142
REMARK   64  A    between atoms: _146  and  ZN_397
REMARK   65  A    between atoms: _147  and  _149
REMARK   66  A    between atoms: _149  and  _150
REMARK   67  A    between atoms: _152  and  _154
REMARK   68  A    between atoms: _154  and  _155
REMARK   69  A    between atoms: _158  and  _160
REMARK   70  A    between atoms: _160  and  _161
REMARK   71  A    between atoms: _160  and  _163
REMARK   72  A    between atoms: _163  and  _164
REMARK   73  A    between atoms: _169  and  _170
REMARK   74  A    between atoms: _172  and  _174
REMARK   75  A    between atoms: _174  and  _175
REMARK   76  A    between atoms: _174  and  _177
REMARK   77  A    between atoms: _177  and  _178
REMARK   78  A    between atoms: _178  and  _179
REMARK   79  A    between atoms: _179  and  _180
REMARK   80  A    between atoms: _180  and  _181
REMARK   81  A    between atoms: _185  and  _187
REMARK   82  A    between atoms: _187  and  _188
REMARK   83  A    between atoms: _187  and  _190
REMARK   84  A    between atoms: _193  and  _195
REMARK   85  A    between atoms: _195  and  _196
REMARK   86  A    between atoms: _195  and  _198
REMARK   87  A    between atoms: _198  and  _199
REMARK   88  A    between atoms: _199  and  _200
REMARK   89  A    between atoms: _202  and  _204
REMARK   90  A    between atoms: _204  and  _205
REMARK   91  A    between atoms: _204  and  _207
REMARK   92  A    between atoms: _207  and  _208
REMARK   93  A    between atoms: _209  and  ZN_397
REMARK   94  A    between atoms: _213  and  _215
REMARK   95  A    between atoms: _215  and  _216
REMARK   96  A    between atoms: _218  and  _220
REMARK   97  A    between atoms: _220  and  _221
REMARK   98  A    between atoms: _220  and  _223
REMARK   99  A    between atoms: _223  and  _224
REMARK  100  A    between atoms: _226  and  _228
REMARK  101  A    between atoms: _228  and  _229
REMARK  102  A    between atoms: _228  and  _231
REMARK  103  A    between atoms: _231  and  _232
REMARK  104  A    between atoms: _234  and  _236
REMARK  105  A    between atoms: _236  and  _237
REMARK  106  A    between atoms: _236  and  _239
REMARK  107  A    between atoms: _239  and  _240
REMARK  108  A    between atoms: _242  and  _244
REMARK  109  A    between atoms: _244  and  _245
REMARK  110  A    between atoms: _244  and  _247
REMARK  111  A    between atoms: _250  and  _252
REMARK  112  A    between atoms: _252  and  _253
REMARK  113  A    between atoms: _252  and  _255
REMARK  114  A    between atoms: _258  and  _260
REMARK  115  A    between atoms: _260  and  _261
REMARK  116  A    between atoms: _263  and  _265
REMARK  117  A    between atoms: _265  and  _266
REMARK  118  A    between atoms: _265  and  _268
REMARK  119  A    between atoms: _271  and  _273
REMARK  120  A    between atoms: _273  and  _274
REMARK  121  A    between atoms: _273  and  _276
REMARK  122  A    between atoms: _276  and  _277
REMARK  123  A    between atoms: _277  and  _278
REMARK  124  A    between atoms: _278  and  _279
REMARK  125  A    between atoms: _279  and  _280
REMARK  126  A    between atoms: _284  and  _286
REMARK  127  A    between atoms: _286  and  _287
REMARK  128  A    between atoms: _286  and  _289
REMARK  129  A    between atoms: _289  and  _290
REMARK  130  A    between atoms: _293  and  _295
REMARK  131  A    between atoms: _295  and  _296
REMARK  132  A    between atoms: _295  and  _298
REMARK  133  A    between atoms: _298  and  _299
REMARK  134  A    between atoms: _304  and  _306
REMARK  135  A    between atoms: _306  and  _307
REMARK  136  A    between atoms: _306  and  _309
REMARK  137  A    between atoms: _312  and  _314
REMARK  138  A    between atoms: _314  and  _315
REMARK  139  A    between atoms: _314  and  _317
REMARK  140  A    between atoms: _317  and  _318
REMARK  141  A    between atoms: _321  and  _323
REMARK  142  A    between atoms: _323  and  _324
REMARK  143  A    between atoms: _323  and  _326
REMARK  144  A    between atoms: _326  and  _327
REMARK  145  A    between atoms: _329  and  _331
REMARK  146  A    between atoms: _331  and  _332
REMARK  147  A    between atoms: _331  and  _334
REMARK  148  A    between atoms: _334  and  _335
REMARK  149  A    between atoms: _338  and  _340
REMARK  150  A    between atoms: _340  and  _341
REMARK  151  A    between atoms: _340  and  _343
REMARK  152  A    between atoms: _343  and  _344
REMARK  153  A    between atoms: _346  and  _348
REMARK  154  A    between atoms: _348  and  _349
REMARK  155  A    between atoms: _348  and  _351
REMARK  156  A    between atoms: _351  and  _352
REMARK  157  A    between atoms: _352  and  _353
REMARK  158  A    between atoms: _353  and  _354
REMARK  159  A    between atoms: _363  and  _365
REMARK  160  A    between atoms: _365  and  _366
REMARK  161  A    between atoms: _365  and  _368
REMARK  162  A    between atoms: _368  and  _369
REMARK  163  A    between atoms: _369  and  _370
REMARK  164  A    between atoms: _372  and  _374
REMARK  165  A    between atoms: _374  and  _375
REMARK  166  A    between atoms: _374  and  _377
REMARK  167  A    between atoms: _377  and  _378
REMARK  168  A    between atoms: _378  and  _379
REMARK  169  A    between atoms: _379  and  _380
REMARK  170  A    between atoms: _380  and  _381
REMARK  171  A    between atoms: _385  and  _387
REMARK  172  A    between atoms: _387  and  _388
REMARK  173  A    between atoms: _387  and  _390
REMARK  174  A    between atoms: _390  and  _391
REMARK                            x       y       z     vdW  Elec       q    Type
REMARK                         _______ _______ _______ _____ _____    ______ ____
ROOT
ATOM      1  O   HOH     1     -31.111  13.266  61.542  0.00  0.00    +0.000 OA
ENDROOT
TORSDOF 0
REMARK  Name = ../refined-set-2016/2isw/2isw_pocket.pdb
REMARK  174 active torsions:
REMARK  status: ('A' for Active; 'I' for Inactive)
REMARK    1  A    between atoms: _1  and  _3
REMARK    2  A    between atoms: _3  and  _4
REMARK    3  A    between atoms: _7  and  _9
REMARK    4  A    between atoms: _9  and  _10
REMARK    5  A    between atoms: _9  and  _12
REMARK    6  A    between atoms: _12  and  _13
REMARK    7  A    between atoms: _19  and  _21
REMARK    8  A    between atoms: _21  and  _22
REMARK    9  A    between atoms: _21  and  _24
REMARK   10  A    between atoms: _24  and  _25
REMARK   11  A    between atoms: _30  and  _32
REMARK   12  A    between atoms: _32  and  _33
REMARK   13  A    between atoms: _32  and  _35
REMARK   14  A    between atoms: _35  and  _36
REMARK   15  A    between atoms: _36  and  _37
REMARK   16  A    between atoms: _42  and  _44
REMARK   17  A    between atoms: _44  and  _45
REMARK   18  A    between atoms: _44  and  _47
REMARK   19  A    between atoms: _47  and  _48
REMARK   20  A    between atoms: _50  and  _52
REMARK   21  A    between atoms: _52  and  _53
REMARK   22  A    between atoms: _52  and  _55
REMARK   23  A    between atoms: _55  and  _56
REMARK   24  A    between atoms: _61  and  _63
REMARK   25  A    between atoms: _63  and  _64
REMARK   26  A    between atoms: _63  and  _66
REMARK   27  A    between atoms: _66  and  _67
REMARK   28  A    between atoms: _70  and  _72
REMARK   29  A    between atoms: _72  and  _73
REMARK   30  A    between atoms: _72  and  _75
REMARK   31  A    between atoms: _75  and  _76
REMARK   32  A    between atoms: _80  and  ZN_397
REMARK   33  A    between atoms: _81  and  _83
REMARK   34  A    between atoms: _83  and  _84
REMARK   35  A    between atoms: _83  and  _86
REMARK   36  A    between atoms: _86  and  _87
REMARK   37  A    between atoms: _87  and  _88
REMARK   38  A    between atoms: _90  and  _92
REMARK   39  A    between atoms: _92  and  _93
REMARK   40  A    between atoms: _92  and  _95
REMARK   41  A    between atoms: _95  and  _96
REMARK   42  A    between atoms: _96  and  _97
REMARK   43  A    between atoms: _100  and  _102
REMARK   44  A    between atoms: _102  and  _103
REMARK   45  A    between atoms: _102  and  _105
REMARK   46  A    between atoms: _105  and  _106
REMARK   47  A    between atoms: _106  and  _107
REMARK   48  A    between atoms: _110  and  _112
REMARK   49  A    between atoms: _112  and  _113
REMARK   50  A    between atoms: _112  and  _115
REMARK   51  A    between atoms: _115  and  _116
REMARK   52  A    between atoms: _119  and  _121
REMARK   53  A    between atoms: _121  and  _122
REMARK   54  A    between atoms: _121  and  _124
REMARK   55  A    between atoms: _124  and  _125
REMARK   56  A    between atoms: _128  and  _130
REMARK   57  A    between atoms: _130  and  _131
REMARK   58  A    between atoms: _130  and  _133
REMARK   59  A    between atoms: _133  and  _134
REMARK   60  A    between atoms: _136  and  _138
REMARK   61  A    between atoms: _138  and  _139
REMARK   62  A    between atoms: _138  and  _141
REMARK   63  A    between atoms: _141  and  _142
REMARK   64  A    between atoms: _146  and  ZN_397
REMARK   65  A    between atoms: _147  and  _149
REMARK   66  A    between atoms: _149  and  _150
REMARK   67  A    between atoms: _152  and  _154
REMARK   68  A    between atoms: _154  and  _155
REMARK   69  A    between atoms: _158  and  _160
REMARK   70  A    between atoms: _160  and  _161
REMARK   71  A    between atoms: _160  and  _163
REMARK   72  A    between atoms: _163  and  _164
REMARK   73  A    between atoms: _169  and  _170
REMARK   74  A    between atoms: _172  and  _174
REMARK   75  A    between atoms: _174  and  _175
REMARK   76  A    between atoms: _174  and  _177
REMARK   77  A    between atoms: _177  and  _178
REMARK   78  A    between atoms: _178  and  _179
REMARK   79  A    between atoms: _179  and  _180
REMARK   80  A    between atoms: _180  and  _181
REMARK   81  A    between atoms: _185  and  _187
REMARK   82  A    between atoms: _187  and  _188
REMARK   83  A    between atoms: _187  and  _190
REMARK   84  A    between atoms: _193  and  _195
REMARK   85  A    between atoms: _195  and  _196
REMARK   86  A    between atoms: _195  and  _198
REMARK   87  A    between atoms: _198  and  _199
REMARK   88  A    between atoms: _199  and  _200
REMARK   89  A    between atoms: _202  and  _204
REMARK   90  A    between atoms: _204  and  _205
REMARK   91  A    between atoms: _204  and  _207
REMARK   92  A    between atoms: _207  and  _208
REMARK   93  A    between atoms: _209  and  ZN_397
REMARK   94  A    between atoms: _213  and  _215
REMARK   95  A    between atoms: _215  and  _216
REMARK   96  A    between atoms: _218  and  _220
REMARK   97  A    between atoms: _220  and  _221
REMARK   98  A    between atoms: _220  and  _223
REMARK   99  A    between atoms: _223  and  _224
REMARK  100  A    between atoms: _226  and  _228
REMARK  101  A    between atoms: _228  and  _229
REMARK  102  A    between atoms: _228  and  _231
REMARK  103  A    between atoms: _231  and  _232
REMARK  104  A    between atoms: _234  and  _236
REMARK  105  A    between atoms: _236  and  _237
REMARK  106  A    between atoms: _236  and  _239
REMARK  107  A    between atoms: _239  and  _240
REMARK  108  A    between atoms: _242  and  _244
REMARK  109  A    between atoms: _244  and  _245
REMARK  110  A    between atoms: _244  and  _247
REMARK  111  A    between atoms: _250  and  _252
REMARK  112  A    between atoms: _252  and  _253
REMARK  113  A    between atoms: _252  and  _255
REMARK  114  A    between atoms: _258  and  _260
REMARK  115  A    between atoms: _260  and  _261
REMARK  116  A    between atoms: _263  and  _265
REMARK  117  A    between atoms: _265  and  _266
REMARK  118  A    between atoms: _265  and  _268
REMARK  119  A    between atoms: _271  and  _273
REMARK  120  A    between atoms: _273  and  _274
REMARK  121  A    between atoms: _273  and  _276
REMARK  122  A    between atoms: _276  and  _277
REMARK  123  A    between atoms: _277  and  _278
REMARK  124  A    between atoms: _278  and  _279
REMARK  125  A    between atoms: _279  and  _280
REMARK  126  A    between atoms: _284  and  _286
REMARK  127  A    between atoms: _286  and  _287
REMARK  128  A    between atoms: _286  and  _289
REMARK  129  A    between atoms: _289  and  _290
REMARK  130  A    between atoms: _293  and  _295
REMARK  131  A    between atoms: _295  and  _296
REMARK  132  A    between atoms: _295  and  _298
REMARK  133  A    between atoms: _298  and  _299
REMARK  134  A    between atoms: _304  and  _306
REMARK  135  A    between atoms: _306  and  _307
REMARK  136  A    between atoms: _306  and  _309
REMARK  137  A    between atoms: _312  and  _314
REMARK  138  A    between atoms: _314  and  _315
REMARK  139  A    between atoms: _314  and  _317
REMARK  140  A    between atoms: _317  and  _318
REMARK  141  A    between atoms: _321  and  _323
REMARK  142  A    between atoms: _323  and  _324
REMARK  143  A    between atoms: _323  and  _326
REMARK  144  A    between atoms: _326  and  _327
REMARK  145  A    between atoms: _329  and  _331
REMARK  146  A    between atoms: _331  and  _332
REMARK  147  A    between atoms: _331  and  _334
REMARK  148  A    between atoms: _334  and  _335
REMARK  149  A    between atoms: _338  and  _340
REMARK  150  A    between atoms: _340  and  _341
REMARK  151  A    between atoms: _340  and  _343
REMARK  152  A    between atoms: _343  and  _344
REMARK  153  A    between atoms: _346  and  _348
REMARK  154  A    between atoms: _348  and  _349
REMARK  155  A    between atoms: _348  and  _351
REMARK  156  A    between atoms: _351  and  _352
REMARK  157  A    between atoms: _352  and  _353
REMARK  158  A    between atoms: _353  and  _354
REMARK  159  A    between atoms: _363  and  _365
REMARK  160  A    between atoms: _365  and  _366
REMARK  161  A    between atoms: _365  and  _368
REMARK  162  A    between atoms: _368  and  _369
REMARK  163  A    between atoms: _369  and  _370
REMARK  164  A    between atoms: _372  and  _374
REMARK  165  A    between atoms: _374  and  _375
REMARK  166  A    between atoms: _374  and  _377
REMARK  167  A    between atoms: _377  and  _378
REMARK  168  A    between atoms: _378  and  _379
REMARK  169  A    between atoms: _379  and  _380
REMARK  170  A    between atoms: _380  and  _381
REMARK  171  A    between atoms: _385  and  _387
REMARK  172  A    between atoms: _387  and  _388
REMARK  173  A    between atoms: _387  and  _390
REMARK  174  A    between atoms: _390  and  _391
REMARK                            x       y       z     vdW  Elec       q    Type
REMARK                         _______ _______ _______ _____ _____    ______ ____
ROOT
ATOM      1  O   HOH     1     -27.364  14.968  60.556  0.00  0.00    +0.000 OA
ENDROOT
TORSDOF 0
REMARK  Name = ../refined-set-2016/2isw/2isw_pocket.pdb
REMARK  174 active torsions:
REMARK  status: ('A' for Active; 'I' for Inactive)
REMARK    1  A    between atoms: _1  and  _3
REMARK    2  A    between atoms: _3  and  _4
REMARK    3  A    between atoms: _7  and  _9
REMARK    4  A    between atoms: _9  and  _10
REMARK    5  A    between atoms: _9  and  _12
REMARK    6  A    between atoms: _12  and  _13
REMARK    7  A    between atoms: _19  and  _21
REMARK    8  A    between atoms: _21  and  _22
REMARK    9  A    between atoms: _21  and  _24
REMARK   10  A    between atoms: _24  and  _25
REMARK   11  A    between atoms: _30  and  _32
REMARK   12  A    between atoms: _32  and  _33
REMARK   13  A    between atoms: _32  and  _35
REMARK   14  A    between atoms: _35  and  _36
REMARK   15  A    between atoms: _36  and  _37
REMARK   16  A    between atoms: _42  and  _44
REMARK   17  A    between atoms: _44  and  _45
REMARK   18  A    between atoms: _44  and  _47
REMARK   19  A    between atoms: _47  and  _48
REMARK   20  A    between atoms: _50  and  _52
REMARK   21  A    between atoms: _52  and  _53
REMARK   22  A    between atoms: _52  and  _55
REMARK   23  A    between atoms: _55  and  _56
REMARK   24  A    between atoms: _61  and  _63
REMARK   25  A    between atoms: _63  and  _64
REMARK   26  A    between atoms: _63  and  _66
REMARK   27  A    between atoms: _66  and  _67
REMARK   28  A    between atoms: _70  and  _72
REMARK   29  A    between atoms: _72  and  _73
REMARK   30  A    between atoms: _72  and  _75
REMARK   31  A    between atoms: _75  and  _76
REMARK   32  A    between atoms: _80  and  ZN_397
REMARK   33  A    between atoms: _81  and  _83
REMARK   34  A    between atoms: _83  and  _84
REMARK   35  A    between atoms: _83  and  _86
REMARK   36  A    between atoms: _86  and  _87
REMARK   37  A    between atoms: _87  and  _88
REMARK   38  A    between atoms: _90  and  _92
REMARK   39  A    between atoms: _92  and  _93
REMARK   40  A    between atoms: _92  and  _95
REMARK   41  A    between atoms: _95  and  _96
REMARK   42  A    between atoms: _96  and  _97
REMARK   43  A    between atoms: _100  and  _102
REMARK   44  A    between atoms: _102  and  _103
REMARK   45  A    between atoms: _102  and  _105
REMARK   46  A    between atoms: _105  and  _106
REMARK   47  A    between atoms: _106  and  _107
REMARK   48  A    between atoms: _110  and  _112
REMARK   49  A    between atoms: _112  and  _113
REMARK   50  A    between atoms: _112  and  _115
REMARK   51  A    between atoms: _115  and  _116
REMARK   52  A    between atoms: _119  and  _121
REMARK   53  A    between atoms: _121  and  _122
REMARK   54  A    between atoms: _121  and  _124
REMARK   55  A    between atoms: _124  and  _125
REMARK   56  A    between atoms: _128  and  _130
REMARK   57  A    between atoms: _130  and  _131
REMARK   58  A    between atoms: _130  and  _133
REMARK   59  A    between atoms: _133  and  _134
REMARK   60  A    between atoms: _136  and  _138
REMARK   61  A    between atoms: _138  and  _139
REMARK   62  A    between atoms: _138  and  _141
REMARK   63  A    between atoms: _141  and  _142
REMARK   64  A    between atoms: _146  and  ZN_397
REMARK   65  A    between atoms: _147  and  _149
REMARK   66  A    between atoms: _149  and  _150
REMARK   67  A    between atoms: _152  and  _154
REMARK   68  A    between atoms: _154  and  _155
REMARK   69  A    between atoms: _158  and  _160
REMARK   70  A    between atoms: _160  and  _161
REMARK   71  A    between atoms: _160  and  _163
REMARK   72  A    between atoms: _163  and  _164
REMARK   73  A    between atoms: _169  and  _170
REMARK   74  A    between atoms: _172  and  _174
REMARK   75  A    between atoms: _174  and  _175
REMARK   76  A    between atoms: _174  and  _177
REMARK   77  A    between atoms: _177  and  _178
REMARK   78  A    between atoms: _178  and  _179
REMARK   79  A    between atoms: _179  and  _180
REMARK   80  A    between atoms: _180  and  _181
REMARK   81  A    between atoms: _185  and  _187
REMARK   82  A    between atoms: _187  and  _188
REMARK   83  A    between atoms: _187  and  _190
REMARK   84  A    between atoms: _193  and  _195
REMARK   85  A    between atoms: _195  and  _196
REMARK   86  A    between atoms: _195  and  _198
REMARK   87  A    between atoms: _198  and  _199
REMARK   88  A    between atoms: _199  and  _200
REMARK   89  A    between atoms: _202  and  _204
REMARK   90  A    between atoms: _204  and  _205
REMARK   91  A    between atoms: _204  and  _207
REMARK   92  A    between atoms: _207  and  _208
REMARK   93  A    between atoms: _209  and  ZN_397
REMARK   94  A    between atoms: _213  and  _215
REMARK   95  A    between atoms: _215  and  _216
REMARK   96  A    between atoms: _218  and  _220
REMARK   97  A    between atoms: _220  and  _221
REMARK   98  A    between atoms: _220  and  _223
REMARK   99  A    between atoms: _223  and  _224
REMARK  100  A    between atoms: _226  and  _228
REMARK  101  A    between atoms: _228  and  _229
REMARK  102  A    between atoms: _228  and  _231
REMARK  103  A    between atoms: _231  and  _232
REMARK  104  A    between atoms: _234  and  _236
REMARK  105  A    between atoms: _236  and  _237
REMARK  106  A    between atoms: _236  and  _239
REMARK  107  A    between atoms: _239  and  _240
REMARK  108  A    between atoms: _242  and  _244
REMARK  109  A    between atoms: _244  and  _245
REMARK  110  A    between atoms: _244  and  _247
REMARK  111  A    between atoms: _250  and  _252
REMARK  112  A    between atoms: _252  and  _253
REMARK  113  A    between atoms: _252  and  _255
REMARK  114  A    between atoms: _258  and  _260
REMARK  115  A    between atoms: _260  and  _261
REMARK  116  A    between atoms: _263  and  _265
REMARK  117  A    between atoms: _265  and  _266
REMARK  118  A    between atoms: _265  and  _268
REMARK  119  A    between atoms: _271  and  _273
REMARK  120  A    between atoms: _273  and  _274
REMARK  121  A    between atoms: _273  and  _276
REMARK  122  A    between atoms: _276  and  _277
REMARK  123  A    between atoms: _277  and  _278
REMARK  124  A    between atoms: _278  and  _279
REMARK  125  A    between atoms: _279  and  _280
REMARK  126  A    between atoms: _284  and  _286
REMARK  127  A    between atoms: _286  and  _287
REMARK  128  A    between atoms: _286  and  _289
REMARK  129  A    between atoms: _289  and  _290
REMARK  130  A    between atoms: _293  and  _295
REMARK  131  A    between atoms: _295  and  _296
REMARK  132  A    between atoms: _295  and  _298
REMARK  133  A    between atoms: _298  and  _299
REMARK  134  A    between atoms: _304  and  _306
REMARK  135  A    between atoms: _306  and  _307
REMARK  136  A    between atoms: _306  and  _309
REMARK  137  A    between atoms: _312  and  _314
REMARK  138  A    between atoms: _314  and  _315
REMARK  139  A    between atoms: _314  and  _317
REMARK  140  A    between atoms: _317  and  _318
REMARK  141  A    between atoms: _321  and  _323
REMARK  142  A    between atoms: _323  and  _324
REMARK  143  A    between atoms: _323  and  _326
REMARK  144  A    between atoms: _326  and  _327
REMARK  145  A    between atoms: _329  and  _331
REMARK  146  A    between atoms: _331  and  _332
REMARK  147  A    between atoms: _331  and  _334
REMARK  148  A    between atoms: _334  and  _335
REMARK  149  A    between atoms: _338  and  _340
REMARK  150  A    between atoms: _340  and  _341
REMARK  151  A    between atoms: _340  and  _343
REMARK  152  A    between atoms: _343  and  _344
REMARK  153  A    between atoms: _346  and  _348
REMARK  154  A    between atoms: _348  and  _349
REMARK  155  A    between atoms: _348  and  _351
REMARK  156  A    between atoms: _351  and  _352
REMARK  157  A    between atoms: _352  and  _353
REMARK  158  A    between atoms: _353  and  _354
REMARK  159  A    between atoms: _363  and  _365
REMARK  160  A    between atoms: _365  and  _366
REMARK  161  A    between atoms: _365  and  _368
REMARK  162  A    between atoms: _368  and  _369
REMARK  163  A    between atoms: _369  and  _370
REMARK  164  A    between atoms: _372  and  _374
REMARK  165  A    between atoms: _374  and  _375
REMARK  166  A    between atoms: _374  and  _377
REMARK  167  A    between atoms: _377  and  _378
REMARK  168  A    between atoms: _378  and  _379
REMARK  169  A    between atoms: _379  and  _380
REMARK  170  A    between atoms: _380  and  _381
REMARK  171  A    between atoms: _385  and  _387
REMARK  172  A    between atoms: _387  and  _388
REMARK  173  A    between atoms: _387  and  _390
REMARK  174  A    between atoms: _390  and  _391
REMARK                            x       y       z     vdW  Elec       q    Type
REMARK                         _______ _______ _______ _____ _____    ______ ____
ROOT
ATOM      1  O   HOH     1     -25.387  13.237  60.446  0.00  0.00    +0.000 OA
ENDROOT
TORSDOF 0
REMARK  Name = ../refined-set-2016/2isw/2isw_pocket.pdb
REMARK  174 active torsions:
REMARK  status: ('A' for Active; 'I' for Inactive)
REMARK    1  A    between atoms: _1  and  _3
REMARK    2  A    between atoms: _3  and  _4
REMARK    3  A    between atoms: _7  and  _9
REMARK    4  A    between atoms: _9  and  _10
REMARK    5  A    between atoms: _9  and  _12
REMARK    6  A    between atoms: _12  and  _13
REMARK    7  A    between atoms: _19  and  _21
REMARK    8  A    between atoms: _21  and  _22
REMARK    9  A    between atoms: _21  and  _24
REMARK   10  A    between atoms: _24  and  _25
REMARK   11  A    between atoms: _30  and  _32
REMARK   12  A    between atoms: _32  and  _33
REMARK   13  A    between atoms: _32  and  _35
REMARK   14  A    between atoms: _35  and  _36
REMARK   15  A    between atoms: _36  and  _37
REMARK   16  A    between atoms: _42  and  _44
REMARK   17  A    between atoms: _44  and  _45
REMARK   18  A    between atoms: _44  and  _47
REMARK   19  A    between atoms: _47  and  _48
REMARK   20  A    between atoms: _50  and  _52
REMARK   21  A    between atoms: _52  and  _53
REMARK   22  A    between atoms: _52  and  _55
REMARK   23  A    between atoms: _55  and  _56
REMARK   24  A    between atoms: _61  and  _63
REMARK   25  A    between atoms: _63  and  _64
REMARK   26  A    between atoms: _63  and  _66
REMARK   27  A    between atoms: _66  and  _67
REMARK   28  A    between atoms: _70  and  _72
REMARK   29  A    between atoms: _72  and  _73
REMARK   30  A    between atoms: _72  and  _75
REMARK   31  A    between atoms: _75  and  _76
REMARK   32  A    between atoms: _80  and  ZN_397
REMARK   33  A    between atoms: _81  and  _83
REMARK   34  A    between atoms: _83  and  _84
REMARK   35  A    between atoms: _83  and  _86
REMARK   36  A    between atoms: _86  and  _87
REMARK   37  A    between atoms: _87  and  _88
REMARK   38  A    between atoms: _90  and  _92
REMARK   39  A    between atoms: _92  and  _93
REMARK   40  A    between atoms: _92  and  _95
REMARK   41  A    between atoms: _95  and  _96
REMARK   42  A    between atoms: _96  and  _97
REMARK   43  A    between atoms: _100  and  _102
REMARK   44  A    between atoms: _102  and  _103
REMARK   45  A    between atoms: _102  and  _105
REMARK   46  A    between atoms: _105  and  _106
REMARK   47  A    between atoms: _106  and  _107
REMARK   48  A    between atoms: _110  and  _112
REMARK   49  A    between atoms: _112  and  _113
REMARK   50  A    between atoms: _112  and  _115
REMARK   51  A    between atoms: _115  and  _116
REMARK   52  A    between atoms: _119  and  _121
REMARK   53  A    between atoms: _121  and  _122
REMARK   54  A    between atoms: _121  and  _124
REMARK   55  A    between atoms: _124  and  _125
REMARK   56  A    between atoms: _128  and  _130
REMARK   57  A    between atoms: _130  and  _131
REMARK   58  A    between atoms: _130  and  _133
REMARK   59  A    between atoms: _133  and  _134
REMARK   60  A    between atoms: _136  and  _138
REMARK   61  A    between atoms: _138  and  _139
REMARK   62  A    between atoms: _138  and  _141
REMARK   63  A    between atoms: _141  and  _142
REMARK   64  A    between atoms: _146  and  ZN_397
REMARK   65  A    between atoms: _147  and  _149
REMARK   66  A    between atoms: _149  and  _150
REMARK   67  A    between atoms: _152  and  _154
REMARK   68  A    between atoms: _154  and  _155
REMARK   69  A    between atoms: _158  and  _160
REMARK   70  A    between atoms: _160  and  _161
REMARK   71  A    between atoms: _160  and  _163
REMARK   72  A    between atoms: _163  and  _164
REMARK   73  A    between atoms: _169  and  _170
REMARK   74  A    between atoms: _172  and  _174
REMARK   75  A    between atoms: _174  and  _175
REMARK   76  A    between atoms: _174  and  _177
REMARK   77  A    between atoms: _177  and  _178
REMARK   78  A    between atoms: _178  and  _179
REMARK   79  A    between atoms: _179  and  _180
REMARK   80  A    between atoms: _180  and  _181
REMARK   81  A    between atoms: _185  and  _187
REMARK   82  A    between atoms: _187  and  _188
REMARK   83  A    between atoms: _187  and  _190
REMARK   84  A    between atoms: _193  and  _195
REMARK   85  A    between atoms: _195  and  _196
REMARK   86  A    between atoms: _195  and  _198
REMARK   87  A    between atoms: _198  and  _199
REMARK   88  A    between atoms: _199  and  _200
REMARK   89  A    between atoms: _202  and  _204
REMARK   90  A    between atoms: _204  and  _205
REMARK   91  A    between atoms: _204  and  _207
REMARK   92  A    between atoms: _207  and  _208
REMARK   93  A    between atoms: _209  and  ZN_397
REMARK   94  A    between atoms: _213  and  _215
REMARK   95  A    between atoms: _215  and  _216
REMARK   96  A    between atoms: _218  and  _220
REMARK   97  A    between atoms: _220  and  _221
REMARK   98  A    between atoms: _220  and  _223
REMARK   99  A    between atoms: _223  and  _224
REMARK  100  A    between atoms: _226  and  _228
REMARK  101  A    between atoms: _228  and  _229
REMARK  102  A    between atoms: _228  and  _231
REMARK  103  A    between atoms: _231  and  _232
REMARK  104  A    between atoms: _234  and  _236
REMARK  105  A    between atoms: _236  and  _237
REMARK  106  A    between atoms: _236  and  _239
REMARK  107  A    between atoms: _239  and  _240
REMARK  108  A    between atoms: _242  and  _244
REMARK  109  A    between atoms: _244  and  _245
REMARK  110  A    between atoms: _244  and  _247
REMARK  111  A    between atoms: _250  and  _252
REMARK  112  A    between atoms: _252  and  _253
REMARK  113  A    between atoms: _252  and  _255
REMARK  114  A    between atoms: _258  and  _260
REMARK  115  A    between atoms: _260  and  _261
REMARK  116  A    between atoms: _263  and  _265
REMARK  117  A    between atoms: _265  and  _266
REMARK  118  A    between atoms: _265  and  _268
REMARK  119  A    between atoms: _271  and  _273
REMARK  120  A    between atoms: _273  and  _274
REMARK  121  A    between atoms: _273  and  _276
REMARK  122  A    between atoms: _276  and  _277
REMARK  123  A    between atoms: _277  and  _278
REMARK  124  A    between atoms: _278  and  _279
REMARK  125  A    between atoms: _279  and  _280
REMARK  126  A    between atoms: _284  and  _286
REMARK  127  A    between atoms: _286  and  _287
REMARK  128  A    between atoms: _286  and  _289
REMARK  129  A    between atoms: _289  and  _290
REMARK  130  A    between atoms: _293  and  _295
REMARK  131  A    between atoms: _295  and  _296
REMARK  132  A    between atoms: _295  and  _298
REMARK  133  A    between atoms: _298  and  _299
REMARK  134  A    between atoms: _304  and  _306
REMARK  135  A    between atoms: _306  and  _307
REMARK  136  A    between atoms: _306  and  _309
REMARK  137  A    between atoms: _312  and  _314
REMARK  138  A    between atoms: _314  and  _315
REMARK  139  A    between atoms: _314  and  _317
REMARK  140  A    between atoms: _317  and  _318
REMARK  141  A    between atoms: _321  and  _323
REMARK  142  A    between atoms: _323  and  _324
REMARK  143  A    between atoms: _323  and  _326
REMARK  144  A    between atoms: _326  and  _327
REMARK  145  A    between atoms: _329  and  _331
REMARK  146  A    between atoms: _331  and  _332
REMARK  147  A    between atoms: _331  and  _334
REMARK  148  A    between atoms: _334  and  _335
REMARK  149  A    between atoms: _338  and  _340
REMARK  150  A    between atoms: _340  and  _341
REMARK  151  A    between atoms: _340  and  _343
REMARK  152  A    between atoms: _343  and  _344
REMARK  153  A    between atoms: _346  and  _348
REMARK  154  A    between atoms: _348  and  _349
REMARK  155  A    between atoms: _348  and  _351
REMARK  156  A    between atoms: _351  and  _352
REMARK  157  A    between atoms: _352  and  _353
REMARK  158  A    between atoms: _353  and  _354
REMARK  159  A    between atoms: _363  and  _365
REMARK  160  A    between atoms: _365  and  _366
REMARK  161  A    between atoms: _365  and  _368
REMARK  162  A    between atoms: _368  and  _369
REMARK  163  A    between atoms: _369  and  _370
REMARK  164  A    between atoms: _372  and  _374
REMARK  165  A    between atoms: _374  and  _375
REMARK  166  A    between atoms: _374  and  _377
REMARK  167  A    between atoms: _377  and  _378
REMARK  168  A    between atoms: _378  and  _379
REMARK  169  A    between atoms: _379  and  _380
REMARK  170  A    between atoms: _380  and  _381
REMARK  171  A    between atoms: _385  and  _387
REMARK  172  A    between atoms: _387  and  _388
REMARK  173  A    between atoms: _387  and  _390
REMARK  174  A    between atoms: _390  and  _391
REMARK                            x       y       z     vdW  Elec       q    Type
REMARK                         _______ _______ _______ _____ _____    ______ ____
ROOT
ATOM      1  O   HOH     1     -24.619  11.208  65.036  0.00  0.00    +0.000 OA
ENDROOT
TORSDOF 0
